*SPEF "ieee 1481-1999"
*DESIGN "PE"
*DATE "07:17:41 Friday March 13, 2026"
*VENDOR "The OpenROAD Project"
*PROGRAM "OpenROAD"
*VERSION "edf00dff99f6c40d67a30c0e22a8191c5d2ed9d6"
*DESIGN_FLOW "NAME_SCOPE LOCAL" "PIN_CAP NONE"
*DIVIDER /
*DELIMITER :
*BUS_DELIMITER []
*T_UNIT 1 NS
*C_UNIT 1 PF
*R_UNIT 1 OHM
*L_UNIT 1 HENRY

*NAME_MAP
*3 a_in[0]
*4 a_in[1]
*5 a_in[2]
*6 a_in[3]
*7 a_in[4]
*8 a_in[5]
*9 a_in[6]
*10 a_in[7]
*11 a_out[0]
*12 a_out[1]
*13 a_out[2]
*14 a_out[3]
*15 a_out[4]
*16 a_out[5]
*17 a_out[6]
*18 a_out[7]
*19 b_in[0]
*20 b_in[1]
*21 b_in[2]
*22 b_in[3]
*23 b_in[4]
*24 b_in[5]
*25 b_in[6]
*26 b_in[7]
*27 b_out[0]
*28 b_out[1]
*29 b_out[2]
*30 b_out[3]
*31 b_out[4]
*32 b_out[5]
*33 b_out[6]
*34 b_out[7]
*35 clear_acc
*36 clk
*37 psum[0]
*38 psum[10]
*39 psum[11]
*40 psum[12]
*41 psum[13]
*42 psum[14]
*43 psum[15]
*44 psum[16]
*45 psum[17]
*46 psum[18]
*47 psum[19]
*48 psum[1]
*49 psum[20]
*50 psum[21]
*51 psum[22]
*52 psum[23]
*53 psum[24]
*54 psum[25]
*55 psum[26]
*56 psum[27]
*57 psum[28]
*58 psum[29]
*59 psum[2]
*60 psum[30]
*61 psum[31]
*62 psum[3]
*63 psum[4]
*64 psum[5]
*65 psum[6]
*66 psum[7]
*67 psum[8]
*68 psum[9]
*69 reset
*70 v_a_in
*71 v_a_out
*72 v_b_in
*73 v_b_out
*74 _0000_
*75 _0001_
*76 _0002_
*77 _0003_
*78 _0004_
*79 _0005_
*80 _0006_
*81 _0007_
*82 _0008_
*83 _0009_
*84 _0010_
*85 _0011_
*86 _0012_
*87 _0013_
*88 _0014_
*89 _0015_
*90 _0016_
*91 _0017_
*92 _0018_
*93 _0019_
*94 _0020_
*95 _0021_
*96 _0022_
*97 _0023_
*98 _0024_
*99 _0025_
*100 _0026_
*101 _0027_
*102 _0028_
*103 _0029_
*104 _0030_
*105 _0031_
*106 _0032_
*107 _0033_
*108 _0034_
*109 _0035_
*110 _0036_
*111 _0037_
*112 _0038_
*113 _0039_
*114 _0040_
*115 _0041_
*116 _0042_
*117 _0043_
*118 _0044_
*119 _0045_
*120 _0046_
*121 _0047_
*122 _0048_
*123 _0049_
*124 _0050_
*125 _0051_
*126 _0052_
*127 _0053_
*128 _0054_
*129 _0055_
*130 _0056_
*131 _0057_
*132 _0058_
*133 _0059_
*134 _0060_
*135 _0061_
*136 _0062_
*137 _0063_
*138 _0064_
*139 _0065_
*140 _0066_
*141 _0067_
*142 _0068_
*143 _0069_
*144 _0070_
*145 _0071_
*146 _0072_
*147 _0073_
*148 _0074_
*149 _0075_
*150 _0076_
*151 _0077_
*152 _0078_
*153 _0079_
*154 _0080_
*155 _0081_
*156 _0082_
*157 _0083_
*158 _0084_
*159 _0085_
*160 _0086_
*161 _0087_
*162 _0088_
*163 _0089_
*164 _0090_
*165 _0091_
*166 _0092_
*167 _0093_
*168 _0094_
*169 _0095_
*170 _0096_
*171 _0097_
*172 _0098_
*173 _0099_
*174 _0100_
*175 _0101_
*176 _0102_
*177 _0103_
*178 _0104_
*179 _0105_
*180 _0106_
*181 _0107_
*182 _0108_
*183 _0109_
*184 _0110_
*185 _0111_
*186 _0112_
*187 _0113_
*188 _0114_
*189 _0115_
*190 _0116_
*191 _0117_
*192 _0118_
*193 _0119_
*194 _0120_
*195 _0121_
*196 _0122_
*197 _0123_
*198 _0124_
*199 _0125_
*200 _0126_
*201 _0127_
*202 _0128_
*203 _0129_
*204 _0130_
*205 _0131_
*206 _0132_
*207 _0133_
*208 _0134_
*209 _0135_
*210 _0136_
*211 _0137_
*212 _0138_
*213 _0139_
*214 _0140_
*215 _0141_
*216 _0142_
*217 _0143_
*218 _0144_
*219 _0145_
*220 _0146_
*221 _0147_
*222 _0148_
*223 _0149_
*224 _0150_
*225 _0151_
*226 _0152_
*227 _0153_
*228 _0154_
*229 _0155_
*230 _0156_
*231 _0157_
*232 _0158_
*233 _0159_
*234 _0160_
*235 _0161_
*236 _0162_
*237 _0163_
*238 _0164_
*239 _0165_
*240 _0166_
*241 _0167_
*242 _0168_
*243 _0169_
*244 _0170_
*245 _0171_
*246 _0172_
*247 _0173_
*248 _0174_
*249 _0175_
*250 _0176_
*251 _0177_
*252 _0178_
*253 _0179_
*254 _0180_
*255 _0181_
*256 _0182_
*257 _0183_
*258 _0184_
*259 _0185_
*260 _0186_
*261 _0187_
*262 _0188_
*263 _0189_
*264 _0190_
*265 _0191_
*266 _0192_
*267 _0193_
*268 _0194_
*269 _0195_
*270 _0196_
*271 _0197_
*272 _0198_
*273 _0199_
*274 _0200_
*275 _0201_
*276 _0202_
*277 _0203_
*278 _0204_
*279 _0205_
*280 _0206_
*281 _0207_
*282 _0208_
*283 _0209_
*284 _0210_
*285 _0211_
*286 _0212_
*287 _0213_
*288 _0214_
*289 _0215_
*290 _0216_
*291 _0217_
*292 _0218_
*293 _0219_
*294 _0220_
*295 _0221_
*296 _0222_
*297 _0223_
*298 _0224_
*299 _0225_
*300 _0226_
*301 _0227_
*302 _0228_
*303 _0229_
*304 _0230_
*305 _0231_
*306 _0232_
*307 _0233_
*308 _0234_
*309 _0235_
*310 _0236_
*311 _0237_
*312 _0238_
*313 _0239_
*314 _0240_
*315 _0241_
*316 _0242_
*317 _0243_
*318 _0244_
*319 _0245_
*320 _0246_
*321 _0247_
*322 _0248_
*323 _0249_
*324 _0250_
*325 _0251_
*326 _0252_
*327 _0253_
*328 _0254_
*329 _0255_
*330 _0256_
*331 _0257_
*332 _0258_
*333 _0259_
*334 _0260_
*335 _0261_
*336 _0262_
*337 _0263_
*338 _0264_
*339 _0265_
*340 _0266_
*341 _0267_
*342 _0268_
*343 _0269_
*344 _0270_
*345 _0271_
*346 _0272_
*347 _0273_
*348 _0274_
*349 _0275_
*350 _0276_
*351 _0277_
*352 _0278_
*353 _0279_
*354 _0280_
*355 _0281_
*356 _0282_
*357 _0283_
*358 _0284_
*359 _0285_
*360 _0286_
*361 _0287_
*362 _0288_
*363 _0289_
*364 _0290_
*365 _0291_
*366 _0292_
*367 _0293_
*368 _0294_
*369 _0295_
*370 _0296_
*371 _0297_
*372 _0298_
*373 _0299_
*374 _0300_
*375 _0301_
*376 _0302_
*377 _0303_
*378 _0304_
*379 _0305_
*380 _0306_
*381 _0307_
*382 _0308_
*383 _0309_
*384 _0310_
*385 _0311_
*386 _0312_
*387 _0313_
*388 _0314_
*389 _0315_
*390 _0316_
*391 _0317_
*392 _0318_
*393 _0319_
*394 _0320_
*395 _0321_
*396 _0322_
*397 _0323_
*398 _0324_
*399 _0325_
*400 _0326_
*401 _0327_
*402 _0328_
*403 _0329_
*404 _0330_
*405 _0331_
*406 _0332_
*407 _0333_
*408 _0334_
*409 _0335_
*410 _0336_
*411 _0337_
*412 _0338_
*413 _0339_
*414 _0340_
*415 _0341_
*416 _0342_
*417 _0343_
*418 _0344_
*419 _0345_
*420 _0346_
*421 _0347_
*422 _0348_
*423 _0349_
*424 _0350_
*425 _0351_
*426 _0352_
*427 _0353_
*428 _0354_
*429 _0355_
*430 _0356_
*431 _0357_
*432 _0358_
*433 _0359_
*434 _0360_
*435 _0361_
*436 _0362_
*437 _0363_
*438 _0364_
*439 _0365_
*440 _0366_
*441 _0367_
*442 _0368_
*443 _0369_
*444 _0370_
*445 _0371_
*446 _0372_
*447 _0373_
*448 _0374_
*449 _0375_
*450 _0376_
*451 _0377_
*452 _0378_
*453 _0379_
*454 _0380_
*455 _0381_
*456 _0382_
*457 _0383_
*458 _0384_
*459 _0385_
*460 _0386_
*461 _0387_
*462 _0388_
*463 _0389_
*464 _0390_
*465 _0391_
*466 _0392_
*467 _0393_
*468 _0394_
*469 _0395_
*470 _0396_
*471 _0397_
*472 _0398_
*473 _0399_
*474 _0400_
*475 _0401_
*476 _0402_
*477 _0403_
*478 _0404_
*479 _0405_
*480 _0406_
*481 _0407_
*482 _0408_
*483 _0409_
*484 _0410_
*485 _0411_
*486 _0412_
*487 _0413_
*488 _0414_
*489 _0415_
*490 _0416_
*491 _0417_
*492 _0418_
*493 _0419_
*494 _0420_
*495 _0421_
*496 _0422_
*497 _0423_
*498 _0424_
*499 _0425_
*500 _0426_
*501 _0427_
*502 _0428_
*503 _0429_
*504 _0430_
*505 _0431_
*506 _0432_
*507 _0433_
*508 _0434_
*509 _0435_
*510 _0436_
*511 _0437_
*512 _0438_
*513 _0439_
*514 _0440_
*515 _0441_
*516 _0442_
*517 _0443_
*518 _0444_
*519 _0445_
*520 _0446_
*521 _0447_
*522 _0448_
*523 _0449_
*524 _0450_
*525 _0451_
*526 _0452_
*527 _0453_
*528 _0454_
*529 _0455_
*530 _0456_
*531 _0457_
*532 _0458_
*533 _0459_
*534 _0460_
*535 _0461_
*536 _0462_
*537 _0463_
*538 _0464_
*539 _0465_
*540 _0466_
*541 _0467_
*542 _0468_
*543 _0469_
*544 _0470_
*545 _0471_
*546 _0472_
*547 _0473_
*548 _0474_
*549 _0475_
*550 _0476_
*551 _0477_
*552 _0478_
*553 _0479_
*554 _0480_
*555 _0481_
*556 _0482_
*557 _0483_
*558 _0484_
*559 _0485_
*560 _0486_
*561 _0487_
*562 _0488_
*563 _0489_
*564 _0490_
*565 _0491_
*566 _0492_
*567 _0493_
*568 _0494_
*569 _0495_
*570 _0496_
*571 _0497_
*572 _0498_
*573 _0499_
*574 _0500_
*575 _0501_
*576 _0502_
*577 _0503_
*578 _0504_
*579 _0505_
*580 _0506_
*581 _0507_
*582 _0508_
*583 _0509_
*584 _0510_
*585 _0511_
*586 _0512_
*587 _0513_
*588 _0514_
*589 _0515_
*590 _0516_
*591 _0517_
*592 _0518_
*593 _0519_
*594 _0520_
*595 _0521_
*596 _0522_
*597 _0523_
*598 _0524_
*599 _0525_
*600 _0526_
*601 _0527_
*602 _0528_
*603 _0529_
*604 _0530_
*605 _0531_
*606 _0532_
*607 _0533_
*608 _0534_
*609 _0535_
*610 _0536_
*611 _0537_
*612 _0538_
*613 _0539_
*614 _0540_
*615 _0541_
*616 _0542_
*617 _0543_
*618 _0544_
*619 _0545_
*620 _0546_
*621 _0547_
*622 _0548_
*623 _0549_
*624 _0550_
*625 _0551_
*626 _0552_
*627 _0553_
*628 _0554_
*629 _0555_
*630 _0556_
*631 _0557_
*632 _0558_
*633 _0559_
*634 _0560_
*635 _0561_
*636 _0562_
*637 _0563_
*638 _0564_
*639 _0565_
*640 _0566_
*641 _0567_
*642 _0568_
*643 _0569_
*644 _0570_
*645 _0571_
*646 _0572_
*647 _0573_
*648 _0574_
*649 _0575_
*650 _0576_
*651 _0577_
*652 _0578_
*653 _0579_
*654 _0580_
*655 _0581_
*656 _0582_
*657 _0583_
*658 _0584_
*659 _0585_
*660 _0586_
*661 _0587_
*662 _0588_
*663 _0589_
*664 _0590_
*665 _0591_
*666 _0592_
*667 _0593_
*668 _0594_
*669 _0595_
*670 _0596_
*671 _0597_
*672 _0598_
*673 _0599_
*674 _0600_
*675 _0601_
*676 _0602_
*677 _0603_
*678 _0604_
*679 _0605_
*680 _0606_
*681 _0607_
*682 _0608_
*683 _0609_
*684 _0610_
*685 _0611_
*686 _0612_
*687 _0613_
*688 _0614_
*689 _0615_
*690 _0616_
*691 _0617_
*692 _0618_
*693 _0619_
*694 _0620_
*695 _0621_
*696 _0622_
*697 _0623_
*698 _0624_
*699 _0625_
*700 _0626_
*701 _0627_
*702 _0628_
*703 _0629_
*704 _0630_
*705 _0631_
*706 _0632_
*707 _0633_
*708 _0634_
*709 _0635_
*710 _0636_
*711 _0637_
*712 _0638_
*713 _0639_
*714 _0640_
*715 _0641_
*716 _0642_
*717 _0643_
*718 _0644_
*719 _0645_
*720 _0646_
*721 _0647_
*722 _0648_
*723 _0649_
*724 _0650_
*725 _0651_
*726 _0652_
*727 _0653_
*728 _0654_
*729 _0655_
*730 _0656_
*731 _0657_
*732 _0658_
*733 _0659_
*734 _0660_
*735 _0661_
*736 _0662_
*737 _0663_
*738 _0664_
*739 _0665_
*740 _0666_
*741 _0667_
*742 _0668_
*743 _0669_
*744 _0670_
*745 _0671_
*746 _0672_
*747 _0673_
*748 _0674_
*749 _0675_
*750 _0676_
*751 _0677_
*752 _0678_
*753 _0679_
*754 _0680_
*755 _0681_
*756 _0682_
*757 _0683_
*758 _0684_
*759 _0685_
*760 _0686_
*761 clknet_0_clk
*762 clknet_3_0__leaf_clk
*763 clknet_3_1__leaf_clk
*764 clknet_3_2__leaf_clk
*765 clknet_3_3__leaf_clk
*766 clknet_3_4__leaf_clk
*767 clknet_3_5__leaf_clk
*768 clknet_3_6__leaf_clk
*769 clknet_3_7__leaf_clk
*770 net1
*771 net10
*772 net100
*773 net101
*774 net102
*775 net103
*776 net104
*777 net105
*778 net106
*779 net107
*780 net108
*781 net109
*782 net11
*783 net110
*784 net111
*785 net112
*786 net113
*787 net114
*788 net115
*789 net116
*790 net117
*791 net118
*792 net119
*793 net12
*794 net120
*795 net121
*796 net122
*797 net123
*798 net124
*799 net125
*800 net126
*801 net127
*802 net128
*803 net129
*804 net13
*805 net130
*806 net131
*807 net132
*808 net133
*809 net134
*810 net135
*811 net136
*812 net137
*813 net138
*814 net139
*815 net14
*816 net140
*817 net141
*818 net142
*819 net143
*820 net144
*821 net145
*822 net146
*823 net147
*824 net148
*825 net149
*826 net15
*827 net150
*828 net151
*829 net152
*830 net153
*831 net154
*832 net155
*833 net156
*834 net157
*835 net158
*836 net159
*837 net16
*838 net160
*839 net161
*840 net162
*841 net163
*842 net164
*843 net165
*844 net166
*845 net167
*846 net168
*847 net169
*848 net17
*849 net170
*850 net171
*851 net172
*852 net173
*853 net174
*854 net175
*855 net176
*856 net177
*857 net178
*858 net179
*859 net18
*860 net180
*861 net181
*862 net182
*863 net19
*864 net2
*865 net20
*866 net206
*867 net207
*868 net208
*869 net209
*870 net21
*871 net210
*872 net211
*873 net212
*874 net213
*875 net214
*876 net215
*877 net216
*878 net217
*879 net218
*880 net219
*881 net22
*882 net220
*883 net221
*884 net222
*885 net223
*886 net224
*887 net225
*888 net226
*889 net227
*890 net228
*891 net229
*892 net23
*893 net230
*894 net231
*895 net232
*896 net233
*897 net234
*898 net235
*899 net236
*900 net237
*901 net238
*902 net239
*903 net24
*904 net244
*905 net25
*906 net26
*907 net260
*908 net27
*909 net276
*910 net277
*911 net278
*912 net279
*913 net28
*914 net280
*915 net287
*916 net288
*917 net29
*918 net290
*919 net291
*920 net3
*921 net30
*922 net305
*923 net306
*924 net307
*925 net308
*926 net309
*927 net31
*928 net310
*929 net311
*930 net312
*931 net313
*932 net314
*933 net315
*934 net316
*935 net317
*936 net318
*937 net319
*938 net32
*939 net320
*940 net321
*941 net322
*942 net324
*943 net325
*944 net329
*945 net33
*946 net330
*947 net331
*948 net333
*949 net334
*950 net336
*951 net339
*952 net34
*953 net340
*954 net341
*955 net343
*956 net344
*957 net346
*958 net347
*959 net348
*960 net35
*961 net350
*962 net351
*963 net353
*964 net354
*965 net356
*966 net357
*967 net358
*968 net359
*969 net36
*970 net360
*971 net361
*972 net362
*973 net364
*974 net366
*975 net367
*976 net368
*977 net369
*978 net37
*979 net370
*980 net371
*981 net372
*982 net373
*983 net374
*984 net375
*985 net376
*986 net377
*987 net378
*988 net379
*989 net38
*990 net380
*991 net381
*992 net382
*993 net383
*994 net384
*995 net385
*996 net386
*997 net387
*998 net388
*999 net389
*1000 net39
*1001 net390
*1002 net391
*1003 net392
*1004 net393
*1005 net394
*1006 net395
*1007 net396
*1008 net397
*1009 net4
*1010 net40
*1011 net41
*1012 net42
*1013 net43
*1014 net44
*1015 net45
*1016 net46
*1017 net47
*1018 net48
*1019 net49
*1020 net5
*1021 net50
*1022 net51
*1023 net52
*1024 net53
*1025 net54
*1026 net55
*1027 net56
*1028 net57
*1029 net58
*1030 net59
*1031 net6
*1032 net60
*1033 net61
*1034 net62
*1035 net63
*1036 net64
*1037 net65
*1038 net66
*1039 net67
*1040 net68
*1041 net69
*1042 net7
*1043 net70
*1044 net71
*1045 net72
*1046 net73
*1047 net74
*1048 net75
*1049 net76
*1050 net77
*1051 net78
*1052 net79
*1053 net8
*1054 net80
*1055 net81
*1056 net82
*1057 net83
*1058 net84
*1059 net85
*1060 net86
*1061 net87
*1062 net88
*1063 net89
*1064 net9
*1065 net90
*1066 net91
*1067 net92
*1068 net93
*1069 net94
*1070 net95
*1071 net96
*1072 net97
*1073 net98
*1074 net99
*1075 product_reg\[0\]
*1076 product_reg\[10\]
*1077 product_reg\[11\]
*1078 product_reg\[12\]
*1079 product_reg\[13\]
*1080 product_reg\[14\]
*1081 product_reg\[15\]
*1082 product_reg\[1\]
*1083 product_reg\[2\]
*1084 product_reg\[3\]
*1085 product_reg\[4\]
*1086 product_reg\[5\]
*1087 product_reg\[6\]
*1088 product_reg\[7\]
*1089 product_reg\[8\]
*1090 product_reg\[9\]
*1091 v_pipe
*1092 FILLER_0_102
*1093 FILLER_0_113
*1094 FILLER_0_125
*1095 FILLER_0_133
*1096 FILLER_0_141
*1097 FILLER_0_147
*1098 FILLER_0_15
*1099 FILLER_0_155
*1100 FILLER_0_161
*1101 FILLER_0_169
*1102 FILLER_0_175
*1103 FILLER_0_182
*1104 FILLER_0_189
*1105 FILLER_0_195
*1106 FILLER_0_197
*1107 FILLER_0_209
*1108 FILLER_0_221
*1109 FILLER_0_225
*1110 FILLER_0_233
*1111 FILLER_0_238
*1112 FILLER_0_245
*1113 FILLER_0_253
*1114 FILLER_0_265
*1115 FILLER_0_27
*1116 FILLER_0_277
*1117 FILLER_0_281
*1118 FILLER_0_29
*1119 FILLER_0_293
*1120 FILLER_0_3
*1121 FILLER_0_305
*1122 FILLER_0_309
*1123 FILLER_0_41
*1124 FILLER_0_49
*1125 FILLER_0_55
*1126 FILLER_0_57
*1127 FILLER_0_63
*1128 FILLER_0_75
*1129 FILLER_0_83
*1130 FILLER_0_85
*1131 FILLER_0_90
*1132 FILLER_10_110
*1133 FILLER_10_127
*1134 FILLER_10_131
*1135 FILLER_10_139
*1136 FILLER_10_141
*1137 FILLER_10_15
*1138 FILLER_10_153
*1139 FILLER_10_165
*1140 FILLER_10_173
*1141 FILLER_10_179
*1142 FILLER_10_183
*1143 FILLER_10_192
*1144 FILLER_10_197
*1145 FILLER_10_206
*1146 FILLER_10_218
*1147 FILLER_10_230
*1148 FILLER_10_242
*1149 FILLER_10_250
*1150 FILLER_10_253
*1151 FILLER_10_257
*1152 FILLER_10_262
*1153 FILLER_10_267
*1154 FILLER_10_27
*1155 FILLER_10_29
*1156 FILLER_10_3
*1157 FILLER_10_309
*1158 FILLER_10_41
*1159 FILLER_10_49
*1160 FILLER_10_56
*1161 FILLER_10_65
*1162 FILLER_10_73
*1163 FILLER_10_85
*1164 FILLER_10_97
*1165 FILLER_11_126
*1166 FILLER_11_138
*1167 FILLER_11_15
*1168 FILLER_11_150
*1169 FILLER_11_162
*1170 FILLER_11_222
*1171 FILLER_11_225
*1172 FILLER_11_237
*1173 FILLER_11_242
*1174 FILLER_11_246
*1175 FILLER_11_252
*1176 FILLER_11_27
*1177 FILLER_11_276
*1178 FILLER_11_281
*1179 FILLER_11_3
*1180 FILLER_11_308
*1181 FILLER_11_35
*1182 FILLER_11_43
*1183 FILLER_11_98
*1184 FILLER_12_100
*1185 FILLER_12_111
*1186 FILLER_12_123
*1187 FILLER_12_129
*1188 FILLER_12_137
*1189 FILLER_12_148
*1190 FILLER_12_15
*1191 FILLER_12_160
*1192 FILLER_12_172
*1193 FILLER_12_193
*1194 FILLER_12_250
*1195 FILLER_12_253
*1196 FILLER_12_27
*1197 FILLER_12_277
*1198 FILLER_12_289
*1199 FILLER_12_29
*1200 FILLER_12_296
*1201 FILLER_12_3
*1202 FILLER_12_305
*1203 FILLER_12_309
*1204 FILLER_12_48
*1205 FILLER_12_63
*1206 FILLER_12_74
*1207 FILLER_12_83
*1208 FILLER_12_88
*1209 FILLER_13_103
*1210 FILLER_13_110
*1211 FILLER_13_123
*1212 FILLER_13_15
*1213 FILLER_13_154
*1214 FILLER_13_166
*1215 FILLER_13_169
*1216 FILLER_13_181
*1217 FILLER_13_222
*1218 FILLER_13_225
*1219 FILLER_13_23
*1220 FILLER_13_237
*1221 FILLER_13_270
*1222 FILLER_13_278
*1223 FILLER_13_281
*1224 FILLER_13_293
*1225 FILLER_13_3
*1226 FILLER_13_36
*1227 FILLER_13_54
*1228 FILLER_13_57
*1229 FILLER_13_91
*1230 FILLER_14_126
*1231 FILLER_14_15
*1232 FILLER_14_158
*1233 FILLER_14_170
*1234 FILLER_14_178
*1235 FILLER_14_183
*1236 FILLER_14_195
*1237 FILLER_14_211
*1238 FILLER_14_219
*1239 FILLER_14_226
*1240 FILLER_14_23
*1241 FILLER_14_238
*1242 FILLER_14_263
*1243 FILLER_14_275
*1244 FILLER_14_287
*1245 FILLER_14_29
*1246 FILLER_14_3
*1247 FILLER_14_302
*1248 FILLER_14_307
*1249 FILLER_14_309
*1250 FILLER_14_64
*1251 FILLER_14_81
*1252 FILLER_14_85
*1253 FILLER_14_97
*1254 FILLER_15_11
*1255 FILLER_15_110
*1256 FILLER_15_130
*1257 FILLER_15_153
*1258 FILLER_15_165
*1259 FILLER_15_169
*1260 FILLER_15_177
*1261 FILLER_15_19
*1262 FILLER_15_191
*1263 FILLER_15_203
*1264 FILLER_15_215
*1265 FILLER_15_223
*1266 FILLER_15_225
*1267 FILLER_15_237
*1268 FILLER_15_269
*1269 FILLER_15_277
*1270 FILLER_15_281
*1271 FILLER_15_297
*1272 FILLER_15_3
*1273 FILLER_15_47
*1274 FILLER_15_55
*1275 FILLER_15_57
*1276 FILLER_15_69
*1277 FILLER_15_88
*1278 FILLER_15_94
*1279 FILLER_16_125
*1280 FILLER_16_141
*1281 FILLER_16_164
*1282 FILLER_16_186
*1283 FILLER_16_195
*1284 FILLER_16_197
*1285 FILLER_16_203
*1286 FILLER_16_212
*1287 FILLER_16_224
*1288 FILLER_16_236
*1289 FILLER_16_244
*1290 FILLER_16_26
*1291 FILLER_16_268
*1292 FILLER_16_280
*1293 FILLER_16_307
*1294 FILLER_16_309
*1295 FILLER_16_38
*1296 FILLER_16_45
*1297 FILLER_16_57
*1298 FILLER_16_77
*1299 FILLER_16_83
*1300 FILLER_16_85
*1301 FILLER_17_108
*1302 FILLER_17_123
*1303 FILLER_17_131
*1304 FILLER_17_169
*1305 FILLER_17_200
*1306 FILLER_17_225
*1307 FILLER_17_232
*1308 FILLER_17_269
*1309 FILLER_17_275
*1310 FILLER_17_281
*1311 FILLER_17_3
*1312 FILLER_17_308
*1313 FILLER_17_48
*1314 FILLER_17_57
*1315 FILLER_17_65
*1316 FILLER_17_85
*1317 FILLER_17_93
*1318 FILLER_18_105
*1319 FILLER_18_116
*1320 FILLER_18_128
*1321 FILLER_18_163
*1322 FILLER_18_194
*1323 FILLER_18_197
*1324 FILLER_18_209
*1325 FILLER_18_229
*1326 FILLER_18_242
*1327 FILLER_18_26
*1328 FILLER_18_263
*1329 FILLER_18_274
*1330 FILLER_18_305
*1331 FILLER_18_309
*1332 FILLER_18_85
*1333 FILLER_18_97
*1334 FILLER_19_101
*1335 FILLER_19_108
*1336 FILLER_19_113
*1337 FILLER_19_125
*1338 FILLER_19_143
*1339 FILLER_19_155
*1340 FILLER_19_164
*1341 FILLER_19_179
*1342 FILLER_19_19
*1343 FILLER_19_191
*1344 FILLER_19_203
*1345 FILLER_19_211
*1346 FILLER_19_220
*1347 FILLER_19_225
*1348 FILLER_19_233
*1349 FILLER_19_275
*1350 FILLER_19_279
*1351 FILLER_19_281
*1352 FILLER_19_30
*1353 FILLER_19_46
*1354 FILLER_19_57
*1355 FILLER_19_69
*1356 FILLER_19_93
*1357 FILLER_1_105
*1358 FILLER_1_111
*1359 FILLER_1_113
*1360 FILLER_1_132
*1361 FILLER_1_144
*1362 FILLER_1_15
*1363 FILLER_1_166
*1364 FILLER_1_169
*1365 FILLER_1_173
*1366 FILLER_1_190
*1367 FILLER_1_202
*1368 FILLER_1_210
*1369 FILLER_1_220
*1370 FILLER_1_234
*1371 FILLER_1_238
*1372 FILLER_1_267
*1373 FILLER_1_27
*1374 FILLER_1_279
*1375 FILLER_1_281
*1376 FILLER_1_293
*1377 FILLER_1_3
*1378 FILLER_1_305
*1379 FILLER_1_39
*1380 FILLER_1_51
*1381 FILLER_1_55
*1382 FILLER_1_57
*1383 FILLER_1_69
*1384 FILLER_1_81
*1385 FILLER_1_93
*1386 FILLER_20_109
*1387 FILLER_20_129
*1388 FILLER_20_138
*1389 FILLER_20_144
*1390 FILLER_20_160
*1391 FILLER_20_172
*1392 FILLER_20_176
*1393 FILLER_20_180
*1394 FILLER_20_192
*1395 FILLER_20_197
*1396 FILLER_20_209
*1397 FILLER_20_221
*1398 FILLER_20_233
*1399 FILLER_20_249
*1400 FILLER_20_253
*1401 FILLER_20_265
*1402 FILLER_20_277
*1403 FILLER_20_287
*1404 FILLER_20_3
*1405 FILLER_20_305
*1406 FILLER_20_309
*1407 FILLER_20_40
*1408 FILLER_20_52
*1409 FILLER_20_83
*1410 FILLER_20_85
*1411 FILLER_20_97
*1412 FILLER_21_105
*1413 FILLER_21_131
*1414 FILLER_21_138
*1415 FILLER_21_146
*1416 FILLER_21_164
*1417 FILLER_21_190
*1418 FILLER_21_198
*1419 FILLER_21_223
*1420 FILLER_21_225
*1421 FILLER_21_237
*1422 FILLER_21_250
*1423 FILLER_21_262
*1424 FILLER_21_274
*1425 FILLER_21_297
*1426 FILLER_21_3
*1427 FILLER_21_51
*1428 FILLER_21_55
*1429 FILLER_21_57
*1430 FILLER_21_70
*1431 FILLER_21_93
*1432 FILLER_22_110
*1433 FILLER_22_116
*1434 FILLER_22_127
*1435 FILLER_22_131
*1436 FILLER_22_141
*1437 FILLER_22_147
*1438 FILLER_22_169
*1439 FILLER_22_181
*1440 FILLER_22_189
*1441 FILLER_22_210
*1442 FILLER_22_221
*1443 FILLER_22_233
*1444 FILLER_22_237
*1445 FILLER_22_257
*1446 FILLER_22_26
*1447 FILLER_22_269
*1448 FILLER_22_277
*1449 FILLER_22_288
*1450 FILLER_22_29
*1451 FILLER_22_306
*1452 FILLER_22_309
*1453 FILLER_22_61
*1454 FILLER_22_70
*1455 FILLER_22_83
*1456 FILLER_22_85
*1457 FILLER_22_97
*1458 FILLER_23_109
*1459 FILLER_23_169
*1460 FILLER_23_177
*1461 FILLER_23_185
*1462 FILLER_23_197
*1463 FILLER_23_203
*1464 FILLER_23_225
*1465 FILLER_23_267
*1466 FILLER_23_279
*1467 FILLER_23_28
*1468 FILLER_23_281
*1469 FILLER_23_310
*1470 FILLER_23_40
*1471 FILLER_23_44
*1472 FILLER_23_49
*1473 FILLER_23_55
*1474 FILLER_23_57
*1475 FILLER_23_65
*1476 FILLER_24_104
*1477 FILLER_24_120
*1478 FILLER_24_133
*1479 FILLER_24_139
*1480 FILLER_24_170
*1481 FILLER_24_178
*1482 FILLER_24_226
*1483 FILLER_24_238
*1484 FILLER_24_258
*1485 FILLER_24_270
*1486 FILLER_24_3
*1487 FILLER_24_306
*1488 FILLER_24_309
*1489 FILLER_24_36
*1490 FILLER_24_44
*1491 FILLER_24_54
*1492 FILLER_24_62
*1493 FILLER_24_76
*1494 FILLER_24_83
*1495 FILLER_25_134
*1496 FILLER_25_15
*1497 FILLER_25_150
*1498 FILLER_25_167
*1499 FILLER_25_169
*1500 FILLER_25_207
*1501 FILLER_25_218
*1502 FILLER_25_233
*1503 FILLER_25_241
*1504 FILLER_25_264
*1505 FILLER_25_27
*1506 FILLER_25_276
*1507 FILLER_25_281
*1508 FILLER_25_299
*1509 FILLER_25_3
*1510 FILLER_25_308
*1511 FILLER_25_50
*1512 FILLER_25_57
*1513 FILLER_25_69
*1514 FILLER_25_90
*1515 FILLER_25_94
*1516 FILLER_26_133
*1517 FILLER_26_139
*1518 FILLER_26_141
*1519 FILLER_26_17
*1520 FILLER_26_217
*1521 FILLER_26_229
*1522 FILLER_26_241
*1523 FILLER_26_25
*1524 FILLER_26_270
*1525 FILLER_26_282
*1526 FILLER_26_286
*1527 FILLER_26_3
*1528 FILLER_26_309
*1529 FILLER_26_46
*1530 FILLER_26_58
*1531 FILLER_26_70
*1532 FILLER_26_82
*1533 FILLER_26_85
*1534 FILLER_26_9
*1535 FILLER_26_97
*1536 FILLER_27_111
*1537 FILLER_27_113
*1538 FILLER_27_127
*1539 FILLER_27_139
*1540 FILLER_27_151
*1541 FILLER_27_17
*1542 FILLER_27_207
*1543 FILLER_27_219
*1544 FILLER_27_223
*1545 FILLER_27_225
*1546 FILLER_27_251
*1547 FILLER_27_263
*1548 FILLER_27_275
*1549 FILLER_27_279
*1550 FILLER_27_281
*1551 FILLER_27_298
*1552 FILLER_27_3
*1553 FILLER_27_36
*1554 FILLER_27_53
*1555 FILLER_27_61
*1556 FILLER_27_67
*1557 FILLER_27_79
*1558 FILLER_27_9
*1559 FILLER_27_91
*1560 FILLER_27_99
*1561 FILLER_28_125
*1562 FILLER_28_133
*1563 FILLER_28_139
*1564 FILLER_28_141
*1565 FILLER_28_153
*1566 FILLER_28_165
*1567 FILLER_28_207
*1568 FILLER_28_224
*1569 FILLER_28_236
*1570 FILLER_28_250
*1571 FILLER_28_253
*1572 FILLER_28_257
*1573 FILLER_28_26
*1574 FILLER_28_278
*1575 FILLER_28_29
*1576 FILLER_28_290
*1577 FILLER_28_3
*1578 FILLER_28_309
*1579 FILLER_28_57
*1580 FILLER_28_78
*1581 FILLER_28_85
*1582 FILLER_29_110
*1583 FILLER_29_139
*1584 FILLER_29_152
*1585 FILLER_29_164
*1586 FILLER_29_169
*1587 FILLER_29_181
*1588 FILLER_29_193
*1589 FILLER_29_199
*1590 FILLER_29_216
*1591 FILLER_29_225
*1592 FILLER_29_237
*1593 FILLER_29_268
*1594 FILLER_29_309
*1595 FILLER_29_47
*1596 FILLER_29_55
*1597 FILLER_29_57
*1598 FILLER_29_80
*1599 FILLER_2_139
*1600 FILLER_2_141
*1601 FILLER_2_15
*1602 FILLER_2_185
*1603 FILLER_2_193
*1604 FILLER_2_197
*1605 FILLER_2_27
*1606 FILLER_2_273
*1607 FILLER_2_281
*1608 FILLER_2_29
*1609 FILLER_2_3
*1610 FILLER_2_309
*1611 FILLER_2_41
*1612 FILLER_2_53
*1613 FILLER_2_65
*1614 FILLER_2_77
*1615 FILLER_2_83
*1616 FILLER_2_85
*1617 FILLER_30_139
*1618 FILLER_30_157
*1619 FILLER_30_169
*1620 FILLER_30_181
*1621 FILLER_30_193
*1622 FILLER_30_22
*1623 FILLER_30_224
*1624 FILLER_30_232
*1625 FILLER_30_248
*1626 FILLER_30_258
*1627 FILLER_30_270
*1628 FILLER_30_288
*1629 FILLER_30_3
*1630 FILLER_30_309
*1631 FILLER_30_39
*1632 FILLER_30_47
*1633 FILLER_30_57
*1634 FILLER_30_69
*1635 FILLER_30_81
*1636 FILLER_30_85
*1637 FILLER_30_93
*1638 FILLER_31_110
*1639 FILLER_31_117
*1640 FILLER_31_132
*1641 FILLER_31_143
*1642 FILLER_31_164
*1643 FILLER_31_17
*1644 FILLER_31_174
*1645 FILLER_31_186
*1646 FILLER_31_194
*1647 FILLER_31_200
*1648 FILLER_31_214
*1649 FILLER_31_222
*1650 FILLER_31_225
*1651 FILLER_31_23
*1652 FILLER_31_233
*1653 FILLER_31_255
*1654 FILLER_31_267
*1655 FILLER_31_279
*1656 FILLER_31_281
*1657 FILLER_31_287
*1658 FILLER_31_294
*1659 FILLER_31_3
*1660 FILLER_31_302
*1661 FILLER_31_37
*1662 FILLER_31_49
*1663 FILLER_31_55
*1664 FILLER_31_60
*1665 FILLER_31_72
*1666 FILLER_31_90
*1667 FILLER_31_98
*1668 FILLER_32_105
*1669 FILLER_32_117
*1670 FILLER_32_15
*1671 FILLER_32_157
*1672 FILLER_32_163
*1673 FILLER_32_168
*1674 FILLER_32_180
*1675 FILLER_32_188
*1676 FILLER_32_200
*1677 FILLER_32_221
*1678 FILLER_32_233
*1679 FILLER_32_241
*1680 FILLER_32_268
*1681 FILLER_32_27
*1682 FILLER_32_281
*1683 FILLER_32_29
*1684 FILLER_32_293
*1685 FILLER_32_3
*1686 FILLER_32_305
*1687 FILLER_32_309
*1688 FILLER_32_66
*1689 FILLER_32_85
*1690 FILLER_32_97
*1691 FILLER_33_106
*1692 FILLER_33_138
*1693 FILLER_33_150
*1694 FILLER_33_158
*1695 FILLER_33_166
*1696 FILLER_33_183
*1697 FILLER_33_195
*1698 FILLER_33_207
*1699 FILLER_33_219
*1700 FILLER_33_223
*1701 FILLER_33_225
*1702 FILLER_33_237
*1703 FILLER_33_259
*1704 FILLER_33_271
*1705 FILLER_33_3
*1706 FILLER_33_305
*1707 FILLER_33_42
*1708 FILLER_33_57
*1709 FILLER_33_94
*1710 FILLER_34_106
*1711 FILLER_34_118
*1712 FILLER_34_127
*1713 FILLER_34_139
*1714 FILLER_34_141
*1715 FILLER_34_153
*1716 FILLER_34_165
*1717 FILLER_34_173
*1718 FILLER_34_182
*1719 FILLER_34_194
*1720 FILLER_34_197
*1721 FILLER_34_203
*1722 FILLER_34_207
*1723 FILLER_34_219
*1724 FILLER_34_231
*1725 FILLER_34_243
*1726 FILLER_34_251
*1727 FILLER_34_29
*1728 FILLER_34_290
*1729 FILLER_34_3
*1730 FILLER_34_309
*1731 FILLER_34_41
*1732 FILLER_34_53
*1733 FILLER_34_77
*1734 FILLER_34_83
*1735 FILLER_34_9
*1736 FILLER_35_101
*1737 FILLER_35_111
*1738 FILLER_35_119
*1739 FILLER_35_129
*1740 FILLER_35_141
*1741 FILLER_35_153
*1742 FILLER_35_165
*1743 FILLER_35_169
*1744 FILLER_35_181
*1745 FILLER_35_193
*1746 FILLER_35_205
*1747 FILLER_35_217
*1748 FILLER_35_223
*1749 FILLER_35_225
*1750 FILLER_35_233
*1751 FILLER_35_257
*1752 FILLER_35_269
*1753 FILLER_35_277
*1754 FILLER_35_281
*1755 FILLER_35_3
*1756 FILLER_35_34
*1757 FILLER_35_42
*1758 FILLER_35_57
*1759 FILLER_35_70
*1760 FILLER_35_94
*1761 FILLER_36_11
*1762 FILLER_36_134
*1763 FILLER_36_145
*1764 FILLER_36_161
*1765 FILLER_36_176
*1766 FILLER_36_182
*1767 FILLER_36_214
*1768 FILLER_36_226
*1769 FILLER_36_248
*1770 FILLER_36_277
*1771 FILLER_36_285
*1772 FILLER_36_3
*1773 FILLER_36_309
*1774 FILLER_36_33
*1775 FILLER_36_80
*1776 FILLER_36_85
*1777 FILLER_36_99
*1778 FILLER_37_120
*1779 FILLER_37_128
*1780 FILLER_37_13
*1781 FILLER_37_136
*1782 FILLER_37_152
*1783 FILLER_37_164
*1784 FILLER_37_169
*1785 FILLER_37_181
*1786 FILLER_37_206
*1787 FILLER_37_23
*1788 FILLER_37_233
*1789 FILLER_37_274
*1790 FILLER_37_3
*1791 FILLER_37_300
*1792 FILLER_37_309
*1793 FILLER_37_35
*1794 FILLER_37_44
*1795 FILLER_37_57
*1796 FILLER_37_65
*1797 FILLER_37_77
*1798 FILLER_37_89
*1799 FILLER_37_97
*1800 FILLER_38_109
*1801 FILLER_38_121
*1802 FILLER_38_133
*1803 FILLER_38_139
*1804 FILLER_38_141
*1805 FILLER_38_153
*1806 FILLER_38_165
*1807 FILLER_38_17
*1808 FILLER_38_177
*1809 FILLER_38_195
*1810 FILLER_38_200
*1811 FILLER_38_212
*1812 FILLER_38_224
*1813 FILLER_38_248
*1814 FILLER_38_27
*1815 FILLER_38_277
*1816 FILLER_38_283
*1817 FILLER_38_291
*1818 FILLER_38_3
*1819 FILLER_38_302
*1820 FILLER_38_307
*1821 FILLER_38_309
*1822 FILLER_38_39
*1823 FILLER_38_62
*1824 FILLER_38_66
*1825 FILLER_38_85
*1826 FILLER_38_97
*1827 FILLER_39_102
*1828 FILLER_39_110
*1829 FILLER_39_113
*1830 FILLER_39_125
*1831 FILLER_39_137
*1832 FILLER_39_149
*1833 FILLER_39_161
*1834 FILLER_39_167
*1835 FILLER_39_169
*1836 FILLER_39_181
*1837 FILLER_39_189
*1838 FILLER_39_222
*1839 FILLER_39_225
*1840 FILLER_39_252
*1841 FILLER_39_264
*1842 FILLER_39_274
*1843 FILLER_39_281
*1844 FILLER_39_293
*1845 FILLER_39_306
*1846 FILLER_39_6
*1847 FILLER_39_65
*1848 FILLER_39_90
*1849 FILLER_3_108
*1850 FILLER_3_113
*1851 FILLER_3_126
*1852 FILLER_3_134
*1853 FILLER_3_15
*1854 FILLER_3_160
*1855 FILLER_3_172
*1856 FILLER_3_178
*1857 FILLER_3_190
*1858 FILLER_3_210
*1859 FILLER_3_214
*1860 FILLER_3_223
*1861 FILLER_3_249
*1862 FILLER_3_27
*1863 FILLER_3_272
*1864 FILLER_3_297
*1865 FILLER_3_3
*1866 FILLER_3_309
*1867 FILLER_3_39
*1868 FILLER_3_51
*1869 FILLER_3_55
*1870 FILLER_3_57
*1871 FILLER_3_69
*1872 FILLER_3_81
*1873 FILLER_3_96
*1874 FILLER_40_109
*1875 FILLER_40_121
*1876 FILLER_40_130
*1877 FILLER_40_138
*1878 FILLER_40_141
*1879 FILLER_40_149
*1880 FILLER_40_174
*1881 FILLER_40_188
*1882 FILLER_40_241
*1883 FILLER_40_249
*1884 FILLER_40_253
*1885 FILLER_40_265
*1886 FILLER_40_277
*1887 FILLER_40_288
*1888 FILLER_40_3
*1889 FILLER_40_306
*1890 FILLER_40_309
*1891 FILLER_40_48
*1892 FILLER_40_70
*1893 FILLER_40_85
*1894 FILLER_40_97
*1895 FILLER_41_111
*1896 FILLER_41_113
*1897 FILLER_41_138
*1898 FILLER_41_160
*1899 FILLER_41_167
*1900 FILLER_41_169
*1901 FILLER_41_173
*1902 FILLER_41_185
*1903 FILLER_41_198
*1904 FILLER_41_205
*1905 FILLER_41_225
*1906 FILLER_41_237
*1907 FILLER_41_249
*1908 FILLER_41_25
*1909 FILLER_41_261
*1910 FILLER_41_273
*1911 FILLER_41_281
*1912 FILLER_41_308
*1913 FILLER_41_6
*1914 FILLER_41_87
*1915 FILLER_42_135
*1916 FILLER_42_139
*1917 FILLER_42_162
*1918 FILLER_42_174
*1919 FILLER_42_192
*1920 FILLER_42_197
*1921 FILLER_42_20
*1922 FILLER_42_209
*1923 FILLER_42_221
*1924 FILLER_42_233
*1925 FILLER_42_241
*1926 FILLER_42_263
*1927 FILLER_42_309
*1928 FILLER_42_6