*SPEF "ieee 1481-1999"
*DESIGN "PE"
*DATE "07:15:48 Friday March 13, 2026"
*VENDOR "The OpenROAD Project"
*PROGRAM "OpenROAD"
*VERSION "edf00dff99f6c40d67a30c0e22a8191c5d2ed9d6"
*DESIGN_FLOW "NAME_SCOPE LOCAL" "PIN_CAP NONE"
*DIVIDER /
*DELIMITER :
*BUS_DELIMITER []
*T_UNIT 1 NS
*C_UNIT 1 PF
*R_UNIT 1 OHM
*L_UNIT 1 HENRY

*NAME_MAP
*3 a_in[0]
*4 a_in[1]
*5 a_in[2]
*6 a_in[3]
*7 a_in[4]
*8 a_in[5]
*9 a_in[6]
*10 a_in[7]
*11 a_out[0]
*12 a_out[1]
*13 a_out[2]
*14 a_out[3]
*15 a_out[4]
*16 a_out[5]
*17 a_out[6]
*18 a_out[7]
*19 b_in[0]
*20 b_in[1]
*21 b_in[2]
*22 b_in[3]
*23 b_in[4]
*24 b_in[5]
*25 b_in[6]
*26 b_in[7]
*27 b_out[0]
*28 b_out[1]
*29 b_out[2]
*30 b_out[3]
*31 b_out[4]
*32 b_out[5]
*33 b_out[6]
*34 b_out[7]
*35 clear_acc
*36 clk
*37 psum[0]
*38 psum[10]
*39 psum[11]
*40 psum[12]
*41 psum[13]
*42 psum[14]
*43 psum[15]
*44 psum[16]
*45 psum[17]
*46 psum[18]
*47 psum[19]
*48 psum[1]
*49 psum[20]
*50 psum[21]
*51 psum[22]
*52 psum[23]
*53 psum[24]
*54 psum[25]
*55 psum[26]
*56 psum[27]
*57 psum[28]
*58 psum[29]
*59 psum[2]
*60 psum[30]
*61 psum[31]
*62 psum[3]
*63 psum[4]
*64 psum[5]
*65 psum[6]
*66 psum[7]
*67 psum[8]
*68 psum[9]
*69 reset
*70 v_a_in
*71 v_a_out
*72 v_b_in
*73 v_b_out
*74 _0000_
*75 _0001_
*76 _0002_
*77 _0003_
*78 _0004_
*79 _0005_
*80 _0006_
*81 _0007_
*82 _0008_
*83 _0009_
*84 _0010_
*85 _0011_
*86 _0012_
*87 _0013_
*88 _0014_
*89 _0015_
*90 _0016_
*91 _0017_
*92 _0018_
*93 _0019_
*94 _0020_
*95 _0021_
*96 _0022_
*97 _0023_
*98 _0024_
*99 _0025_
*100 _0026_
*101 _0027_
*102 _0028_
*103 _0029_
*104 _0030_
*105 _0031_
*106 _0032_
*107 _0033_
*108 _0034_
*109 _0035_
*110 _0036_
*111 _0037_
*112 _0038_
*113 _0039_
*114 _0040_
*115 _0041_
*116 _0042_
*117 _0043_
*118 _0044_
*119 _0045_
*120 _0046_
*121 _0047_
*122 _0048_
*123 _0049_
*124 _0050_
*125 _0051_
*126 _0052_
*127 _0053_
*128 _0054_
*129 _0055_
*130 _0056_
*131 _0057_
*132 _0058_
*133 _0059_
*134 _0060_
*135 _0061_
*136 _0062_
*137 _0063_
*138 _0064_
*139 _0065_
*140 _0066_
*141 _0067_
*142 _0068_
*143 _0069_
*144 _0070_
*145 _0071_
*146 _0072_
*147 _0073_
*148 _0074_
*149 _0075_
*150 _0076_
*151 _0077_
*152 _0078_
*153 _0079_
*154 _0080_
*155 _0081_
*156 _0082_
*157 _0083_
*158 _0084_
*159 _0085_
*160 _0086_
*161 _0087_
*162 _0088_
*163 _0089_
*164 _0090_
*165 _0091_
*166 _0092_
*167 _0093_
*168 _0094_
*169 _0095_
*170 _0096_
*171 _0097_
*172 _0098_
*173 _0099_
*174 _0100_
*175 _0101_
*176 _0102_
*177 _0103_
*178 _0104_
*179 _0105_
*180 _0106_
*181 _0107_
*182 _0108_
*183 _0109_
*184 _0110_
*185 _0111_
*186 _0112_
*187 _0113_
*188 _0114_
*189 _0115_
*190 _0116_
*191 _0117_
*192 _0118_
*193 _0119_
*194 _0120_
*195 _0121_
*196 _0122_
*197 _0123_
*198 _0124_
*199 _0125_
*200 _0126_
*201 _0127_
*202 _0128_
*203 _0129_
*204 _0130_
*205 _0131_
*206 _0132_
*207 _0133_
*208 _0134_
*209 _0135_
*210 _0136_
*211 _0137_
*212 _0138_
*213 _0139_
*214 _0140_
*215 _0141_
*216 _0142_
*217 _0143_
*218 _0144_
*219 _0145_
*220 _0146_
*221 _0147_
*222 _0148_
*223 _0149_
*224 _0150_
*225 _0151_
*226 _0152_
*227 _0153_
*228 _0154_
*229 _0155_
*230 _0156_
*231 _0157_
*232 _0158_
*233 _0159_
*234 _0160_
*235 _0161_
*236 _0162_
*237 _0163_
*238 _0164_
*239 _0165_
*240 _0166_
*241 _0167_
*242 _0168_
*243 _0169_
*244 _0170_
*245 _0171_
*246 _0172_
*247 _0173_
*248 _0174_
*249 _0175_
*250 _0176_
*251 _0177_
*252 _0178_
*253 _0179_
*254 _0180_
*255 _0181_
*256 _0182_
*257 _0183_
*258 _0184_
*259 _0185_
*260 _0186_
*261 _0187_
*262 _0188_
*263 _0189_
*264 _0190_
*265 _0191_
*266 _0192_
*267 _0193_
*268 _0194_
*269 _0195_
*270 _0196_
*271 _0197_
*272 _0198_
*273 _0199_
*274 _0200_
*275 _0201_
*276 _0202_
*277 _0203_
*278 _0204_
*279 _0205_
*280 _0206_
*281 _0207_
*282 _0208_
*283 _0209_
*284 _0210_
*285 _0211_
*286 _0212_
*287 _0213_
*288 _0214_
*289 _0215_
*290 _0216_
*291 _0217_
*292 _0218_
*293 _0219_
*294 _0220_
*295 _0221_
*296 _0222_
*297 _0223_
*298 _0224_
*299 _0225_
*300 _0226_
*301 _0227_
*302 _0228_
*303 _0229_
*304 _0230_
*305 _0231_
*306 _0232_
*307 _0233_
*308 _0234_
*309 _0235_
*310 _0236_
*311 _0237_
*312 _0238_
*313 _0239_
*314 _0240_
*315 _0241_
*316 _0242_
*317 _0243_
*318 _0244_
*319 _0245_
*320 _0246_
*321 _0247_
*322 _0248_
*323 _0249_
*324 _0250_
*325 _0251_
*326 _0252_
*327 _0253_
*328 _0254_
*329 _0255_
*330 _0256_
*331 _0257_
*332 _0258_
*333 _0259_
*334 _0260_
*335 _0261_
*336 _0262_
*337 _0263_
*338 _0264_
*339 _0265_
*340 _0266_
*341 _0267_
*342 _0268_
*343 _0269_
*344 _0270_
*345 _0271_
*346 _0272_
*347 _0273_
*348 _0274_
*349 _0275_
*350 _0276_
*351 _0277_
*352 _0278_
*353 _0279_
*354 _0280_
*355 _0281_
*356 _0282_
*357 _0283_
*358 _0284_
*359 _0285_
*360 _0286_
*361 _0287_
*362 _0288_
*363 _0289_
*364 _0290_
*365 _0291_
*366 _0292_
*367 _0293_
*368 _0294_
*369 _0295_
*370 _0296_
*371 _0297_
*372 _0298_
*373 _0299_
*374 _0300_
*375 _0301_
*376 _0302_
*377 _0303_
*378 _0304_
*379 _0305_
*380 _0306_
*381 _0307_
*382 _0308_
*383 _0309_
*384 _0310_
*385 _0311_
*386 _0312_
*387 _0313_
*388 _0314_
*389 _0315_
*390 _0316_
*391 _0317_
*392 _0318_
*393 _0319_
*394 _0320_
*395 _0321_
*396 _0322_
*397 _0323_
*398 _0324_
*399 _0325_
*400 _0326_
*401 _0327_
*402 _0328_
*403 _0329_
*404 _0330_
*405 _0331_
*406 _0332_
*407 _0333_
*408 _0334_
*409 _0335_
*410 _0336_
*411 _0337_
*412 _0338_
*413 _0339_
*414 _0340_
*415 _0341_
*416 _0342_
*417 _0343_
*418 _0344_
*419 _0345_
*420 _0346_
*421 _0347_
*422 _0348_
*423 _0349_
*424 _0350_
*425 _0351_
*426 _0352_
*427 _0353_
*428 _0354_
*429 _0355_
*430 _0356_
*431 _0357_
*432 _0358_
*433 _0359_
*434 _0360_
*435 _0361_
*436 _0362_
*437 _0363_
*438 _0364_
*439 _0365_
*440 _0366_
*441 _0367_
*442 _0368_
*443 _0369_
*444 _0370_
*445 _0371_
*446 _0372_
*447 _0373_
*448 _0374_
*449 _0375_
*450 _0376_
*451 _0377_
*452 _0378_
*453 _0379_
*454 _0380_
*455 _0381_
*456 _0382_
*457 _0383_
*458 _0384_
*459 _0385_
*460 _0386_
*461 _0387_
*462 _0388_
*463 _0389_
*464 _0390_
*465 _0391_
*466 _0392_
*467 _0393_
*468 _0394_
*469 _0395_
*470 _0396_
*471 _0397_
*472 _0398_
*473 _0399_
*474 _0400_
*475 _0401_
*476 _0402_
*477 _0403_
*478 _0404_
*479 _0405_
*480 _0406_
*481 _0407_
*482 _0408_
*483 _0409_
*484 _0410_
*485 _0411_
*486 _0412_
*487 _0413_
*488 _0414_
*489 _0415_
*490 _0416_
*491 _0417_
*492 _0418_
*493 _0419_
*494 _0420_
*495 _0421_
*496 _0422_
*497 _0423_
*498 _0424_
*499 _0425_
*500 _0426_
*501 _0427_
*502 _0428_
*503 _0429_
*504 _0430_
*505 _0431_
*506 _0432_
*507 _0433_
*508 _0434_
*509 _0435_
*510 _0436_
*511 _0437_
*512 _0438_
*513 _0439_
*514 _0440_
*515 _0441_
*516 _0442_
*517 _0443_
*518 _0444_
*519 _0445_
*520 _0446_
*521 _0447_
*522 _0448_
*523 _0449_
*524 _0450_
*525 _0451_
*526 _0452_
*527 _0453_
*528 _0454_
*529 _0455_
*530 _0456_
*531 _0457_
*532 _0458_
*533 _0459_
*534 _0460_
*535 _0461_
*536 _0462_
*537 _0463_
*538 _0464_
*539 _0465_
*540 _0466_
*541 _0467_
*542 _0468_
*543 _0469_
*544 _0470_
*545 _0471_
*546 _0472_
*547 _0473_
*548 _0474_
*549 _0475_
*550 _0476_
*551 _0477_
*552 _0478_
*553 _0479_
*554 _0480_
*555 _0481_
*556 _0482_
*557 _0483_
*558 _0484_
*559 _0485_
*560 _0486_
*561 _0487_
*562 _0488_
*563 _0489_
*564 _0490_
*565 _0491_
*566 _0492_
*567 _0493_
*568 _0494_
*569 _0495_
*570 _0496_
*571 _0497_
*572 _0498_
*573 _0499_
*574 _0500_
*575 _0501_
*576 _0502_
*577 _0503_
*578 _0504_
*579 _0505_
*580 _0506_
*581 _0507_
*582 _0508_
*583 _0509_
*584 _0510_
*585 _0511_
*586 _0512_
*587 _0513_
*588 _0514_
*589 _0515_
*590 _0516_
*591 _0517_
*592 _0518_
*593 _0519_
*594 _0520_
*595 _0521_
*596 _0522_
*597 _0523_
*598 _0524_
*599 _0525_
*600 _0526_
*601 _0527_
*602 _0528_
*603 _0529_
*604 _0530_
*605 _0531_
*606 _0532_
*607 _0533_
*608 _0534_
*609 _0535_
*610 _0536_
*611 _0537_
*612 _0538_
*613 _0539_
*614 _0540_
*615 _0541_
*616 _0542_
*617 _0543_
*618 _0544_
*619 _0545_
*620 _0546_
*621 _0547_
*622 _0548_
*623 _0549_
*624 _0550_
*625 _0551_
*626 _0552_
*627 _0553_
*628 _0554_
*629 _0555_
*630 _0556_
*631 _0557_
*632 _0558_
*633 _0559_
*634 _0560_
*635 _0561_
*636 _0562_
*637 _0563_
*638 _0564_
*639 _0565_
*640 _0566_
*641 _0567_
*642 _0568_
*643 _0569_
*644 _0570_
*645 _0571_
*646 _0572_
*647 _0573_
*648 _0574_
*649 _0575_
*650 _0576_
*651 _0577_
*652 _0578_
*653 _0579_
*654 _0580_
*655 _0581_
*656 _0582_
*657 _0583_
*658 _0584_
*659 _0585_
*660 _0586_
*661 _0587_
*662 _0588_
*663 _0589_
*664 _0590_
*665 _0591_
*666 _0592_
*667 _0593_
*668 _0594_
*669 _0595_
*670 _0596_
*671 _0597_
*672 _0598_
*673 _0599_
*674 _0600_
*675 _0601_
*676 _0602_
*677 _0603_
*678 _0604_
*679 _0605_
*680 _0606_
*681 _0607_
*682 _0608_
*683 _0609_
*684 _0610_
*685 _0611_
*686 _0612_
*687 _0613_
*688 _0614_
*689 _0615_
*690 _0616_
*691 _0617_
*692 _0618_
*693 _0619_
*694 _0620_
*695 _0621_
*696 _0622_
*697 _0623_
*698 _0624_
*699 _0625_
*700 _0626_
*701 _0627_
*702 _0628_
*703 _0629_
*704 _0630_
*705 _0631_
*706 _0632_
*707 _0633_
*708 _0634_
*709 _0635_
*710 _0636_
*711 _0637_
*712 _0638_
*713 _0639_
*714 _0640_
*715 _0641_
*716 _0642_
*717 _0643_
*718 _0644_
*719 _0645_
*720 _0646_
*721 _0647_
*722 _0648_
*723 _0649_
*724 _0650_
*725 _0651_
*726 _0652_
*727 _0653_
*728 _0654_
*729 _0655_
*730 _0656_
*731 _0657_
*732 _0658_
*733 _0659_
*734 _0660_
*735 _0661_
*736 _0662_
*737 _0663_
*738 _0664_
*739 _0665_
*740 _0666_
*741 _0667_
*742 _0668_
*743 _0669_
*744 _0670_
*745 _0671_
*746 _0672_
*747 _0673_
*748 _0674_
*749 _0675_
*750 _0676_
*751 _0677_
*752 _0678_
*753 _0679_
*754 _0680_
*755 _0681_
*756 _0682_
*757 _0683_
*758 _0684_
*759 _0685_
*760 _0686_
*761 clknet_0_clk
*762 clknet_3_0__leaf_clk
*763 clknet_3_1__leaf_clk
*764 clknet_3_2__leaf_clk
*765 clknet_3_3__leaf_clk
*766 clknet_3_4__leaf_clk
*767 clknet_3_5__leaf_clk
*768 clknet_3_6__leaf_clk
*769 clknet_3_7__leaf_clk
*770 net1
*771 net10
*772 net100
*773 net101
*774 net102
*775 net103
*776 net104
*777 net105
*778 net106
*779 net107
*780 net108
*781 net109
*782 net11
*783 net110
*784 net111
*785 net112
*786 net113
*787 net114
*788 net115
*789 net116
*790 net117
*791 net118
*792 net119
*793 net12
*794 net120
*795 net121
*796 net122
*797 net123
*798 net124
*799 net125
*800 net126
*801 net127
*802 net128
*803 net129
*804 net13
*805 net130
*806 net131
*807 net132
*808 net133
*809 net134
*810 net135
*811 net136
*812 net137
*813 net138
*814 net139
*815 net14
*816 net140
*817 net141
*818 net142
*819 net143
*820 net144
*821 net145
*822 net146
*823 net147
*824 net148
*825 net149
*826 net15
*827 net150
*828 net151
*829 net152
*830 net153
*831 net154
*832 net155
*833 net156
*834 net157
*835 net158
*836 net159
*837 net16
*838 net160
*839 net161
*840 net162
*841 net163
*842 net164
*843 net165
*844 net166
*845 net167
*846 net168
*847 net169
*848 net17
*849 net170
*850 net171
*851 net172
*852 net173
*853 net174
*854 net175
*855 net176
*856 net177
*857 net178
*858 net179
*859 net18
*860 net180
*861 net181
*862 net182
*863 net183
*864 net184
*865 net185
*866 net186
*867 net187
*868 net188
*869 net189
*870 net19
*871 net190
*872 net191
*873 net192
*874 net193
*875 net194
*876 net195
*877 net196
*878 net197
*879 net198
*880 net199
*881 net2
*882 net20
*883 net200
*884 net201
*885 net21
*886 net22
*887 net23
*888 net24
*889 net25
*890 net26
*891 net260
*892 net261
*893 net262
*894 net27
*895 net28
*896 net29
*897 net298
*898 net3
*899 net30
*900 net31
*901 net32
*902 net33
*903 net34
*904 net343
*905 net344
*906 net347
*907 net35
*908 net358
*909 net359
*910 net36
*911 net360
*912 net361
*913 net362
*914 net363
*915 net364
*916 net365
*917 net366
*918 net367
*919 net368
*920 net369
*921 net37
*922 net370
*923 net371
*924 net372
*925 net373
*926 net374
*927 net375
*928 net376
*929 net377
*930 net378
*931 net379
*932 net38
*933 net380
*934 net381
*935 net382
*936 net383
*937 net384
*938 net385
*939 net386
*940 net387
*941 net388
*942 net389
*943 net39
*944 net390
*945 net391
*946 net392
*947 net393
*948 net394
*949 net395
*950 net396
*951 net397
*952 net398
*953 net399
*954 net4
*955 net40
*956 net400
*957 net401
*958 net402
*959 net403
*960 net404
*961 net405
*962 net406
*963 net407
*964 net408
*965 net409
*966 net41
*967 net410
*968 net411
*969 net412
*970 net413
*971 net414
*972 net415
*973 net416
*974 net417
*975 net42
*976 net43
*977 net44
*978 net45
*979 net46
*980 net47
*981 net48
*982 net49
*983 net5
*984 net50
*985 net51
*986 net52
*987 net53
*988 net54
*989 net55
*990 net56
*991 net57
*992 net58
*993 net59
*994 net6
*995 net60
*996 net61
*997 net62
*998 net63
*999 net64
*1000 net65
*1001 net66
*1002 net67
*1003 net68
*1004 net69
*1005 net7
*1006 net70
*1007 net71
*1008 net72
*1009 net73
*1010 net74
*1011 net75
*1012 net76
*1013 net77
*1014 net78
*1015 net79
*1016 net8
*1017 net80
*1018 net81
*1019 net82
*1020 net83
*1021 net84
*1022 net85
*1023 net86
*1024 net87
*1025 net88
*1026 net89
*1027 net9
*1028 net90
*1029 net91
*1030 net92
*1031 net93
*1032 net94
*1033 net95
*1034 net96
*1035 net97
*1036 net98
*1037 net99
*1038 product_reg\[0\]
*1039 product_reg\[10\]
*1040 product_reg\[11\]
*1041 product_reg\[12\]
*1042 product_reg\[13\]
*1043 product_reg\[14\]
*1044 product_reg\[15\]
*1045 product_reg\[1\]
*1046 product_reg\[2\]
*1047 product_reg\[3\]
*1048 product_reg\[4\]
*1049 product_reg\[5\]
*1050 product_reg\[6\]
*1051 product_reg\[7\]
*1052 product_reg\[8\]
*1053 product_reg\[9\]
*1054 v_pipe
*1055 ANTENNA_1
*1056 ANTENNA_2
*1057 FILLER_0_109
*1058 FILLER_0_113
*1059 FILLER_0_125
*1060 FILLER_0_137
*1061 FILLER_0_141
*1062 FILLER_0_15
*1063 FILLER_0_153
*1064 FILLER_0_165
*1065 FILLER_0_169
*1066 FILLER_0_181
*1067 FILLER_0_193
*1068 FILLER_0_197
*1069 FILLER_0_209
*1070 FILLER_0_221
*1071 FILLER_0_225
*1072 FILLER_0_237
*1073 FILLER_0_249
*1074 FILLER_0_253
*1075 FILLER_0_265
*1076 FILLER_0_27
*1077 FILLER_0_277
*1078 FILLER_0_281
*1079 FILLER_0_293
*1080 FILLER_0_3
*1081 FILLER_0_305
*1082 FILLER_0_309
*1083 FILLER_0_35
*1084 FILLER_0_41
*1085 FILLER_0_49
*1086 FILLER_0_55
*1087 FILLER_0_57
*1088 FILLER_0_62
*1089 FILLER_0_74
*1090 FILLER_0_82
*1091 FILLER_0_85
*1092 FILLER_0_97
*1093 FILLER_10_109
*1094 FILLER_10_11
*1095 FILLER_10_121
*1096 FILLER_10_139
*1097 FILLER_10_141
*1098 FILLER_10_183
*1099 FILLER_10_19
*1100 FILLER_10_195
*1101 FILLER_10_218
*1102 FILLER_10_247
*1103 FILLER_10_251
*1104 FILLER_10_260
*1105 FILLER_10_27
*1106 FILLER_10_272
*1107 FILLER_10_284
*1108 FILLER_10_296
*1109 FILLER_10_3
*1110 FILLER_10_304
*1111 FILLER_10_309
*1112 FILLER_10_36
*1113 FILLER_10_85
*1114 FILLER_10_89
*1115 FILLER_11_108
*1116 FILLER_11_113
*1117 FILLER_11_117
*1118 FILLER_11_15
*1119 FILLER_11_157
*1120 FILLER_11_165
*1121 FILLER_11_169
*1122 FILLER_11_183
*1123 FILLER_11_202
*1124 FILLER_11_213
*1125 FILLER_11_221
*1126 FILLER_11_233
*1127 FILLER_11_261
*1128 FILLER_11_273
*1129 FILLER_11_279
*1130 FILLER_11_281
*1131 FILLER_11_293
*1132 FILLER_11_3
*1133 FILLER_11_305
*1134 FILLER_11_47
*1135 FILLER_11_55
*1136 FILLER_11_66
*1137 FILLER_12_110
*1138 FILLER_12_130
*1139 FILLER_12_15
*1140 FILLER_12_168
*1141 FILLER_12_172
*1142 FILLER_12_197
*1143 FILLER_12_230
*1144 FILLER_12_239
*1145 FILLER_12_251
*1146 FILLER_12_263
*1147 FILLER_12_27
*1148 FILLER_12_275
*1149 FILLER_12_287
*1150 FILLER_12_29
*1151 FILLER_12_299
*1152 FILLER_12_3
*1153 FILLER_12_307
*1154 FILLER_12_309
*1155 FILLER_12_68
*1156 FILLER_12_76
*1157 FILLER_13_123
*1158 FILLER_13_140
*1159 FILLER_13_15
*1160 FILLER_13_158
*1161 FILLER_13_175
*1162 FILLER_13_189
*1163 FILLER_13_197
*1164 FILLER_13_221
*1165 FILLER_13_237
*1166 FILLER_13_262
*1167 FILLER_13_27
*1168 FILLER_13_274
*1169 FILLER_13_281
*1170 FILLER_13_293
*1171 FILLER_13_3
*1172 FILLER_13_305
*1173 FILLER_13_39
*1174 FILLER_13_45
*1175 FILLER_13_53
*1176 FILLER_13_66
*1177 FILLER_13_83
*1178 FILLER_14_105
*1179 FILLER_14_122
*1180 FILLER_14_15
*1181 FILLER_14_154
*1182 FILLER_14_158
*1183 FILLER_14_168
*1184 FILLER_14_172
*1185 FILLER_14_190
*1186 FILLER_14_222
*1187 FILLER_14_235
*1188 FILLER_14_247
*1189 FILLER_14_251
*1190 FILLER_14_253
*1191 FILLER_14_265
*1192 FILLER_14_27
*1193 FILLER_14_277
*1194 FILLER_14_289
*1195 FILLER_14_29
*1196 FILLER_14_3
*1197 FILLER_14_301
*1198 FILLER_14_307
*1199 FILLER_14_309
*1200 FILLER_14_52
*1201 FILLER_15_110
*1202 FILLER_15_113
*1203 FILLER_15_125
*1204 FILLER_15_129
*1205 FILLER_15_133
*1206 FILLER_15_15
*1207 FILLER_15_151
*1208 FILLER_15_169
*1209 FILLER_15_21
*1210 FILLER_15_239
*1211 FILLER_15_25
*1212 FILLER_15_255
*1213 FILLER_15_267
*1214 FILLER_15_279
*1215 FILLER_15_281
*1216 FILLER_15_29
*1217 FILLER_15_293
*1218 FILLER_15_3
*1219 FILLER_15_305
*1220 FILLER_15_66
*1221 FILLER_15_88
*1222 FILLER_16_124
*1223 FILLER_16_136
*1224 FILLER_16_141
*1225 FILLER_16_149
*1226 FILLER_16_156
*1227 FILLER_16_19
*1228 FILLER_16_197
*1229 FILLER_16_201
*1230 FILLER_16_219
*1231 FILLER_16_225
*1232 FILLER_16_239
*1233 FILLER_16_257
*1234 FILLER_16_269
*1235 FILLER_16_27
*1236 FILLER_16_281
*1237 FILLER_16_29
*1238 FILLER_16_293
*1239 FILLER_16_3
*1240 FILLER_16_309
*1241 FILLER_16_51
*1242 FILLER_16_7
*1243 FILLER_16_83
*1244 FILLER_17_110
*1245 FILLER_17_119
*1246 FILLER_17_127
*1247 FILLER_17_136
*1248 FILLER_17_161
*1249 FILLER_17_175
*1250 FILLER_17_222
*1251 FILLER_17_229
*1252 FILLER_17_235
*1253 FILLER_17_243
*1254 FILLER_17_249
*1255 FILLER_17_261
*1256 FILLER_17_273
*1257 FILLER_17_279
*1258 FILLER_17_281
*1259 FILLER_17_293
*1260 FILLER_17_305
*1261 FILLER_17_57
*1262 FILLER_18_108
*1263 FILLER_18_127
*1264 FILLER_18_137
*1265 FILLER_18_141
*1266 FILLER_18_152
*1267 FILLER_18_197
*1268 FILLER_18_239
*1269 FILLER_18_246
*1270 FILLER_18_26
*1271 FILLER_18_270
*1272 FILLER_18_282
*1273 FILLER_18_294
*1274 FILLER_18_306
*1275 FILLER_18_309
*1276 FILLER_18_60
*1277 FILLER_19_110
*1278 FILLER_19_113
*1279 FILLER_19_152
*1280 FILLER_19_163
*1281 FILLER_19_167
*1282 FILLER_19_186
*1283 FILLER_19_194
*1284 FILLER_19_204
*1285 FILLER_19_210
*1286 FILLER_19_246
*1287 FILLER_19_258
*1288 FILLER_19_270
*1289 FILLER_19_278
*1290 FILLER_19_281
*1291 FILLER_19_293
*1292 FILLER_19_305
*1293 FILLER_19_50
*1294 FILLER_19_57
*1295 FILLER_1_105
*1296 FILLER_1_111
*1297 FILLER_1_113
*1298 FILLER_1_125
*1299 FILLER_1_137
*1300 FILLER_1_149
*1301 FILLER_1_15
*1302 FILLER_1_161
*1303 FILLER_1_167
*1304 FILLER_1_169
*1305 FILLER_1_181
*1306 FILLER_1_193
*1307 FILLER_1_205
*1308 FILLER_1_217
*1309 FILLER_1_223
*1310 FILLER_1_225
*1311 FILLER_1_237
*1312 FILLER_1_249
*1313 FILLER_1_261
*1314 FILLER_1_27
*1315 FILLER_1_273
*1316 FILLER_1_279
*1317 FILLER_1_281
*1318 FILLER_1_293
*1319 FILLER_1_3
*1320 FILLER_1_305
*1321 FILLER_1_39
*1322 FILLER_1_51
*1323 FILLER_1_55
*1324 FILLER_1_57
*1325 FILLER_1_69
*1326 FILLER_1_81
*1327 FILLER_1_93
*1328 FILLER_20_103
*1329 FILLER_20_108
*1330 FILLER_20_118
*1331 FILLER_20_170
*1332 FILLER_20_178
*1333 FILLER_20_186
*1334 FILLER_20_19
*1335 FILLER_20_193
*1336 FILLER_20_242
*1337 FILLER_20_250
*1338 FILLER_20_260
*1339 FILLER_20_264
*1340 FILLER_20_281
*1341 FILLER_20_289
*1342 FILLER_20_309
*1343 FILLER_20_60
*1344 FILLER_20_75
*1345 FILLER_20_79
*1346 FILLER_20_85
*1347 FILLER_21_137
*1348 FILLER_21_147
*1349 FILLER_21_166
*1350 FILLER_21_193
*1351 FILLER_21_201
*1352 FILLER_21_220
*1353 FILLER_21_228
*1354 FILLER_21_240
*1355 FILLER_21_244
*1356 FILLER_21_267
*1357 FILLER_21_273
*1358 FILLER_21_279
*1359 FILLER_21_49
*1360 FILLER_21_54
*1361 FILLER_21_57
*1362 FILLER_21_61
*1363 FILLER_22_116
*1364 FILLER_22_129
*1365 FILLER_22_141
*1366 FILLER_22_158
*1367 FILLER_22_170
*1368 FILLER_22_178
*1369 FILLER_22_184
*1370 FILLER_22_207
*1371 FILLER_22_219
*1372 FILLER_22_231
*1373 FILLER_22_245
*1374 FILLER_22_251
*1375 FILLER_22_253
*1376 FILLER_22_265
*1377 FILLER_22_277
*1378 FILLER_22_289
*1379 FILLER_22_297
*1380 FILLER_22_3
*1381 FILLER_22_309
*1382 FILLER_22_48
*1383 FILLER_22_55
*1384 FILLER_22_64
*1385 FILLER_22_88
*1386 FILLER_23_10
*1387 FILLER_23_105
*1388 FILLER_23_110
*1389 FILLER_23_113
*1390 FILLER_23_136
*1391 FILLER_23_142
*1392 FILLER_23_164
*1393 FILLER_23_169
*1394 FILLER_23_185
*1395 FILLER_23_193
*1396 FILLER_23_219
*1397 FILLER_23_223
*1398 FILLER_23_228
*1399 FILLER_23_247
*1400 FILLER_23_258
*1401 FILLER_23_262
*1402 FILLER_23_270
*1403 FILLER_23_278
*1404 FILLER_23_286
*1405 FILLER_23_3
*1406 FILLER_23_305
*1407 FILLER_23_55
*1408 FILLER_23_65
*1409 FILLER_23_78
*1410 FILLER_24_185
*1411 FILLER_24_191
*1412 FILLER_24_221
*1413 FILLER_24_229
*1414 FILLER_24_239
*1415 FILLER_24_251
*1416 FILLER_24_26
*1417 FILLER_24_285
*1418 FILLER_24_291
*1419 FILLER_24_3
*1420 FILLER_24_309
*1421 FILLER_24_50
*1422 FILLER_24_57
*1423 FILLER_24_69
*1424 FILLER_24_75
*1425 FILLER_24_83
*1426 FILLER_25_110
*1427 FILLER_25_164
*1428 FILLER_25_169
*1429 FILLER_25_177
*1430 FILLER_25_203
*1431 FILLER_25_219
*1432 FILLER_25_223
*1433 FILLER_25_24
*1434 FILLER_25_249
*1435 FILLER_25_261
*1436 FILLER_25_273
*1437 FILLER_25_3
*1438 FILLER_25_302
*1439 FILLER_25_46
*1440 FILLER_25_67
*1441 FILLER_25_78
*1442 FILLER_26_128
*1443 FILLER_26_161
*1444 FILLER_26_19
*1445 FILLER_26_195
*1446 FILLER_26_211
*1447 FILLER_26_228
*1448 FILLER_26_239
*1449 FILLER_26_251
*1450 FILLER_26_253
*1451 FILLER_26_261
*1452 FILLER_26_27
*1453 FILLER_26_273
*1454 FILLER_26_282
*1455 FILLER_26_290
*1456 FILLER_26_309
*1457 FILLER_26_35
*1458 FILLER_26_46
*1459 FILLER_26_58
*1460 FILLER_26_66
*1461 FILLER_26_72
*1462 FILLER_26_80
*1463 FILLER_26_85
*1464 FILLER_27_10
*1465 FILLER_27_107
*1466 FILLER_27_130
*1467 FILLER_27_149
*1468 FILLER_27_220
*1469 FILLER_27_225
*1470 FILLER_27_237
*1471 FILLER_27_249
*1472 FILLER_27_261
*1473 FILLER_27_269
*1474 FILLER_27_284
*1475 FILLER_27_301
*1476 FILLER_27_32
*1477 FILLER_27_44
*1478 FILLER_27_48
*1479 FILLER_27_53
*1480 FILLER_27_64
*1481 FILLER_27_78
*1482 FILLER_28_139
*1483 FILLER_28_148
*1484 FILLER_28_164
*1485 FILLER_28_188
*1486 FILLER_28_193
*1487 FILLER_28_20
*1488 FILLER_28_204
*1489 FILLER_28_215
*1490 FILLER_28_219
*1491 FILLER_28_225
*1492 FILLER_28_246
*1493 FILLER_28_253
*1494 FILLER_28_26
*1495 FILLER_28_264
*1496 FILLER_28_279
*1497 FILLER_28_284
*1498 FILLER_28_307
*1499 FILLER_28_309
*1500 FILLER_28_32
*1501 FILLER_28_50
*1502 FILLER_28_70
*1503 FILLER_28_80
*1504 FILLER_28_9
*1505 FILLER_28_91
*1506 FILLER_29_12
*1507 FILLER_29_134
*1508 FILLER_29_140
*1509 FILLER_29_167
*1510 FILLER_29_169
*1511 FILLER_29_179
*1512 FILLER_29_183
*1513 FILLER_29_192
*1514 FILLER_29_204
*1515 FILLER_29_216
*1516 FILLER_29_241
*1517 FILLER_29_253
*1518 FILLER_29_262
*1519 FILLER_29_270
*1520 FILLER_29_33
*1521 FILLER_29_57
*1522 FILLER_29_65
*1523 FILLER_29_92
*1524 FILLER_2_109
*1525 FILLER_2_121
*1526 FILLER_2_133
*1527 FILLER_2_139
*1528 FILLER_2_141
*1529 FILLER_2_15
*1530 FILLER_2_153
*1531 FILLER_2_165
*1532 FILLER_2_177
*1533 FILLER_2_189
*1534 FILLER_2_195
*1535 FILLER_2_197
*1536 FILLER_2_209
*1537 FILLER_2_221
*1538 FILLER_2_233
*1539 FILLER_2_245
*1540 FILLER_2_251
*1541 FILLER_2_253
*1542 FILLER_2_265
*1543 FILLER_2_27
*1544 FILLER_2_277
*1545 FILLER_2_289
*1546 FILLER_2_29
*1547 FILLER_2_3
*1548 FILLER_2_301
*1549 FILLER_2_307
*1550 FILLER_2_309
*1551 FILLER_2_41
*1552 FILLER_2_53
*1553 FILLER_2_65
*1554 FILLER_2_77
*1555 FILLER_2_83
*1556 FILLER_2_85
*1557 FILLER_2_97
*1558 FILLER_30_105
*1559 FILLER_30_111
*1560 FILLER_30_134
*1561 FILLER_30_154
*1562 FILLER_30_177
*1563 FILLER_30_189
*1564 FILLER_30_195
*1565 FILLER_30_197
*1566 FILLER_30_209
*1567 FILLER_30_220
*1568 FILLER_30_224
*1569 FILLER_30_25
*1570 FILLER_30_273
*1571 FILLER_30_282
*1572 FILLER_30_3
*1573 FILLER_30_309
*1574 FILLER_30_35
*1575 FILLER_30_45
*1576 FILLER_30_49
*1577 FILLER_30_71
*1578 FILLER_30_83
*1579 FILLER_30_85
*1580 FILLER_30_91
*1581 FILLER_31_101
*1582 FILLER_31_109
*1583 FILLER_31_113
*1584 FILLER_31_119
*1585 FILLER_31_131
*1586 FILLER_31_15
*1587 FILLER_31_161
*1588 FILLER_31_167
*1589 FILLER_31_169
*1590 FILLER_31_176
*1591 FILLER_31_180
*1592 FILLER_31_191
*1593 FILLER_31_199
*1594 FILLER_31_223
*1595 FILLER_31_232
*1596 FILLER_31_240
*1597 FILLER_31_27
*1598 FILLER_31_272
*1599 FILLER_31_3
*1600 FILLER_31_31
*1601 FILLER_31_47
*1602 FILLER_31_55
*1603 FILLER_31_57
*1604 FILLER_31_69
*1605 FILLER_31_77
*1606 FILLER_31_89
*1607 FILLER_32_10
*1608 FILLER_32_105
*1609 FILLER_32_111
*1610 FILLER_32_123
*1611 FILLER_32_138
*1612 FILLER_32_141
*1613 FILLER_32_154
*1614 FILLER_32_16
*1615 FILLER_32_177
*1616 FILLER_32_192
*1617 FILLER_32_20
*1618 FILLER_32_204
*1619 FILLER_32_221
*1620 FILLER_32_227
*1621 FILLER_32_309
*1622 FILLER_32_50
*1623 FILLER_32_6
*1624 FILLER_32_83
*1625 FILLER_32_85
*1626 FILLER_32_97
*1627 FILLER_33_108
*1628 FILLER_33_139
*1629 FILLER_33_156
*1630 FILLER_33_169
*1631 FILLER_33_173
*1632 FILLER_33_181
*1633 FILLER_33_185
*1634 FILLER_33_19
*1635 FILLER_33_197
*1636 FILLER_33_208
*1637 FILLER_33_218
*1638 FILLER_33_225
*1639 FILLER_33_231
*1640 FILLER_33_236
*1641 FILLER_33_240
*1642 FILLER_33_281
*1643 FILLER_33_290
*1644 FILLER_33_35
*1645 FILLER_33_54
*1646 FILLER_33_57
*1647 FILLER_33_64
*1648 FILLER_33_74
*1649 FILLER_33_81
*1650 FILLER_33_97
*1651 FILLER_34_10
*1652 FILLER_34_102
*1653 FILLER_34_106
*1654 FILLER_34_127
*1655 FILLER_34_138
*1656 FILLER_34_153
*1657 FILLER_34_157
*1658 FILLER_34_164
*1659 FILLER_34_176
*1660 FILLER_34_194
*1661 FILLER_34_22
*1662 FILLER_34_229
*1663 FILLER_34_241
*1664 FILLER_34_249
*1665 FILLER_34_253
*1666 FILLER_34_266
*1667 FILLER_34_27
*1668 FILLER_34_29
*1669 FILLER_34_296
*1670 FILLER_34_309
*1671 FILLER_34_41
*1672 FILLER_34_53
*1673 FILLER_34_65
*1674 FILLER_34_73
*1675 FILLER_34_85
*1676 FILLER_35_101
*1677 FILLER_35_109
*1678 FILLER_35_113
*1679 FILLER_35_125
*1680 FILLER_35_130
*1681 FILLER_35_137
*1682 FILLER_35_15
*1683 FILLER_35_166
*1684 FILLER_35_176
*1685 FILLER_35_184
*1686 FILLER_35_189
*1687 FILLER_35_19
*1688 FILLER_35_201
*1689 FILLER_35_213
*1690 FILLER_35_221
*1691 FILLER_35_225
*1692 FILLER_35_245
*1693 FILLER_35_253
*1694 FILLER_35_263
*1695 FILLER_35_272
*1696 FILLER_35_3
*1697 FILLER_35_310
*1698 FILLER_35_32
*1699 FILLER_35_40
*1700 FILLER_35_50
*1701 FILLER_35_57
*1702 FILLER_35_65
*1703 FILLER_35_77
*1704 FILLER_35_89
*1705 FILLER_36_121
*1706 FILLER_36_129
*1707 FILLER_36_137
*1708 FILLER_36_154
*1709 FILLER_36_177
*1710 FILLER_36_193
*1711 FILLER_36_197
*1712 FILLER_36_203
*1713 FILLER_36_207
*1714 FILLER_36_219
*1715 FILLER_36_233
*1716 FILLER_36_251
*1717 FILLER_36_26
*1718 FILLER_36_286
*1719 FILLER_36_309
*1720 FILLER_36_36
*1721 FILLER_36_53
*1722 FILLER_36_68
*1723 FILLER_36_72
*1724 FILLER_36_81
*1725 FILLER_36_85
*1726 FILLER_36_95
*1727 FILLER_37_106
*1728 FILLER_37_113
*1729 FILLER_37_127
*1730 FILLER_37_18
*1731 FILLER_37_201
*1732 FILLER_37_23
*1733 FILLER_37_235
*1734 FILLER_37_272
*1735 FILLER_37_276
*1736 FILLER_37_286
*1737 FILLER_37_310
*1738 FILLER_37_35
*1739 FILLER_37_47
*1740 FILLER_37_55
*1741 FILLER_37_57
*1742 FILLER_37_65
*1743 FILLER_38_105
*1744 FILLER_38_120
*1745 FILLER_38_128
*1746 FILLER_38_137
*1747 FILLER_38_141
*1748 FILLER_38_154
*1749 FILLER_38_166
*1750 FILLER_38_182
*1751 FILLER_38_194
*1752 FILLER_38_197
*1753 FILLER_38_209
*1754 FILLER_38_221
*1755 FILLER_38_230
*1756 FILLER_38_239
*1757 FILLER_38_24
*1758 FILLER_38_251
*1759 FILLER_38_263
*1760 FILLER_38_275
*1761 FILLER_38_285
*1762 FILLER_38_292
*1763 FILLER_38_296
*1764 FILLER_38_309
*1765 FILLER_38_37
*1766 FILLER_38_45
*1767 FILLER_38_58
*1768 FILLER_38_68
*1769 FILLER_38_80
*1770 FILLER_38_85
*1771 FILLER_38_97
*1772 FILLER_39_111
*1773 FILLER_39_117
*1774 FILLER_39_150
*1775 FILLER_39_172
*1776 FILLER_39_178
*1777 FILLER_39_183
*1778 FILLER_39_19
*1779 FILLER_39_195
*1780 FILLER_39_209
*1781 FILLER_39_223
*1782 FILLER_39_232
*1783 FILLER_39_281
*1784 FILLER_39_38
*1785 FILLER_39_57
*1786 FILLER_39_72
*1787 FILLER_39_80
*1788 FILLER_39_85
*1789 FILLER_39_91
*1790 FILLER_3_105
*1791 FILLER_3_111
*1792 FILLER_3_113
*1793 FILLER_3_125
*1794 FILLER_3_137
*1795 FILLER_3_149
*1796 FILLER_3_15
*1797 FILLER_3_161
*1798 FILLER_3_167
*1799 FILLER_3_169
*1800 FILLER_3_181
*1801 FILLER_3_193
*1802 FILLER_3_205
*1803 FILLER_3_217
*1804 FILLER_3_223
*1805 FILLER_3_225
*1806 FILLER_3_237
*1807 FILLER_3_249
*1808 FILLER_3_261
*1809 FILLER_3_27
*1810 FILLER_3_273
*1811 FILLER_3_279
*1812 FILLER_3_281
*1813 FILLER_3_293
*1814 FILLER_3_3
*1815 FILLER_3_305
*1816 FILLER_3_39
*1817 FILLER_3_51
*1818 FILLER_3_55
*1819 FILLER_3_57
*1820 FILLER_3_69
*1821 FILLER_3_81
*1822 FILLER_3_93
*1823 FILLER_40_11
*1824 FILLER_40_141
*1825 FILLER_40_153
*1826 FILLER_40_159
*1827 FILLER_40_192
*1828 FILLER_40_200
*1829 FILLER_40_207
*1830 FILLER_40_213
*1831 FILLER_40_23
*1832 FILLER_40_233
*1833 FILLER_40_245
*1834 FILLER_40_253
*1835 FILLER_40_27
*1836 FILLER_40_279
*1837 FILLER_40_291
*1838 FILLER_40_295
*1839 FILLER_40_309
*1840 FILLER_40_42
*1841 FILLER_40_46
*1842 FILLER_40_50
*1843 FILLER_40_58
*1844 FILLER_40_69
*1845 FILLER_40_76
*1846 FILLER_40_82
*1847 FILLER_40_99
*1848 FILLER_41_10
*1849 FILLER_41_111
*1850 FILLER_41_113
*1851 FILLER_41_125
*1852 FILLER_41_137
*1853 FILLER_41_141
*1854 FILLER_41_161
*1855 FILLER_41_167
*1856 FILLER_41_173
*1857 FILLER_41_214
*1858 FILLER_41_22
*1859 FILLER_41_222
*1860 FILLER_41_225
*1861 FILLER_41_231
*1862 FILLER_41_240
*1863 FILLER_41_267
*1864 FILLER_41_278
*1865 FILLER_41_281
*1866 FILLER_41_289
*1867 FILLER_41_297
*1868 FILLER_41_310
*1869 FILLER_41_34
*1870 FILLER_41_46
*1871 FILLER_41_54
*1872 FILLER_41_57
*1873 FILLER_41_69
*1874 FILLER_41_81
*1875 FILLER_41_93
*1876 FILLER_41_99
*1877 FILLER_42_108
*1878 FILLER_42_120
*1879 FILLER_42_141
*1880 FILLER_42_150
*1881 FILLER_42_162
*1882 FILLER_42_170
*1883 FILLER_42_175
*1884 FILLER_42_187
*1885 FILLER_42_195
*1886 FILLER_42_197
*1887 FILLER_42_209
*1888 FILLER_42_228
*1889 FILLER_42_24
*1890 FILLER_42_240
*1891 FILLER_42_264
*1892 FILLER_42_281
*1893 FILLER_42_29
*1894 FILLER_42_309
*1895 FILLER_42_41
*1896 FILLER_42_45
*1897 FILLER_42_60
*1898 FILLER_42_70
*1899 FILLER_42_82
*1900 FILLER_42_85
*1901 FILLER_42_91
*1902 FILLER_43_103
*1903 FILLER_43_118
*1904 FILLER_43_15
*1905 FILLER_43_156
*1906 FILLER_43_160
*1907 FILLER_43_193
*1908 FILLER_43_205
*1909 FILLER_43_217
*1910 FILLER_43_223
*1911 FILLER_43_23
*1912 FILLER_43_245
*1913 FILLER_43_257
*1914 FILLER_43_274
*1915 FILLER_43_281
*1916 FILLER_43_285