*SPEF "ieee 1481-1999"
*DESIGN "PE"
*DATE "17:10:50 Wednesday March 11, 2026"
*VENDOR "The OpenROAD Project"
*PROGRAM "OpenROAD"
*VERSION "edf00dff99f6c40d67a30c0e22a8191c5d2ed9d6"
*DESIGN_FLOW "NAME_SCOPE LOCAL" "PIN_CAP NONE"
*DIVIDER /
*DELIMITER :
*BUS_DELIMITER []
*T_UNIT 1 NS
*C_UNIT 1 PF
*R_UNIT 1 OHM
*L_UNIT 1 HENRY

*NAME_MAP
*3 a_in[0]
*4 a_in[1]
*5 a_in[2]
*6 a_in[3]
*7 a_in[4]
*8 a_in[5]
*9 a_in[6]
*10 a_in[7]
*11 a_out[0]
*12 a_out[1]
*13 a_out[2]
*14 a_out[3]
*15 a_out[4]
*16 a_out[5]
*17 a_out[6]
*18 a_out[7]
*19 b_in[0]
*20 b_in[1]
*21 b_in[2]
*22 b_in[3]
*23 b_in[4]
*24 b_in[5]
*25 b_in[6]
*26 b_in[7]
*27 b_out[0]
*28 b_out[1]
*29 b_out[2]
*30 b_out[3]
*31 b_out[4]
*32 b_out[5]
*33 b_out[6]
*34 b_out[7]
*35 clear_acc
*36 clk
*37 psum[0]
*38 psum[10]
*39 psum[11]
*40 psum[12]
*41 psum[13]
*42 psum[14]
*43 psum[15]
*44 psum[16]
*45 psum[17]
*46 psum[18]
*47 psum[19]
*48 psum[1]
*49 psum[20]
*50 psum[21]
*51 psum[22]
*52 psum[23]
*53 psum[24]
*54 psum[25]
*55 psum[26]
*56 psum[27]
*57 psum[28]
*58 psum[29]
*59 psum[2]
*60 psum[30]
*61 psum[31]
*62 psum[3]
*63 psum[4]
*64 psum[5]
*65 psum[6]
*66 psum[7]
*67 psum[8]
*68 psum[9]
*69 reset
*70 v_a_in
*71 v_a_out
*72 v_b_in
*73 v_b_out
*74 _0000_
*75 _0001_
*76 _0002_
*77 _0003_
*78 _0004_
*79 _0005_
*80 _0006_
*81 _0007_
*82 _0008_
*83 _0009_
*84 _0010_
*85 _0011_
*86 _0012_
*87 _0013_
*88 _0014_
*89 _0015_
*90 _0016_
*91 _0017_
*92 _0018_
*93 _0019_
*94 _0020_
*95 _0021_
*96 _0022_
*97 _0023_
*98 _0024_
*99 _0025_
*100 _0026_
*101 _0027_
*102 _0028_
*103 _0029_
*104 _0030_
*105 _0031_
*106 _0032_
*107 _0033_
*108 _0034_
*109 _0035_
*110 _0036_
*111 _0037_
*112 _0038_
*113 _0039_
*114 _0040_
*115 _0041_
*116 _0042_
*117 _0043_
*118 _0044_
*119 _0045_
*120 _0046_
*121 _0047_
*122 _0048_
*123 _0049_
*124 _0050_
*125 _0051_
*126 _0052_
*127 _0053_
*128 _0054_
*129 _0055_
*130 _0056_
*131 _0057_
*132 _0058_
*133 _0059_
*134 _0060_
*135 _0061_
*136 _0062_
*137 _0063_
*138 _0064_
*139 _0065_
*140 _0066_
*141 _0067_
*142 _0068_
*143 _0069_
*144 _0070_
*145 _0071_
*146 _0072_
*147 _0073_
*148 _0074_
*149 _0075_
*150 _0076_
*151 _0077_
*152 _0078_
*153 _0079_
*154 _0080_
*155 _0081_
*156 _0082_
*157 _0083_
*158 _0084_
*159 _0085_
*160 _0086_
*161 _0087_
*162 _0088_
*163 _0089_
*164 _0090_
*165 _0091_
*166 _0092_
*167 _0093_
*168 _0094_
*169 _0095_
*170 _0096_
*171 _0097_
*172 _0098_
*173 _0099_
*174 _0100_
*175 _0101_
*176 _0102_
*177 _0103_
*178 _0104_
*179 _0105_
*180 _0106_
*181 _0107_
*182 _0108_
*183 _0109_
*184 _0110_
*185 _0111_
*186 _0112_
*187 _0113_
*188 _0114_
*189 _0115_
*190 _0116_
*191 _0117_
*192 _0118_
*193 _0119_
*194 _0120_
*195 _0121_
*196 _0122_
*197 _0123_
*198 _0124_
*199 _0125_
*200 _0126_
*201 _0127_
*202 _0128_
*203 _0129_
*204 _0130_
*205 _0131_
*206 _0132_
*207 _0133_
*208 _0134_
*209 _0135_
*210 _0136_
*211 _0137_
*212 _0138_
*213 _0139_
*214 _0140_
*215 _0141_
*216 _0142_
*217 _0143_
*218 _0144_
*219 _0145_
*220 _0146_
*221 _0147_
*222 _0148_
*223 _0149_
*224 _0150_
*225 _0151_
*226 _0152_
*227 _0153_
*228 _0154_
*229 _0155_
*230 _0156_
*231 _0157_
*232 _0158_
*233 _0159_
*234 _0160_
*235 _0161_
*236 _0162_
*237 _0163_
*238 _0164_
*239 _0165_
*240 _0166_
*241 _0167_
*242 _0168_
*243 _0169_
*244 _0170_
*245 _0171_
*246 _0172_
*247 _0173_
*248 _0174_
*249 _0175_
*250 _0176_
*251 _0177_
*252 _0178_
*253 _0179_
*254 _0180_
*255 _0181_
*256 _0182_
*257 _0183_
*258 _0184_
*259 _0185_
*260 _0186_
*261 _0187_
*262 _0188_
*263 _0189_
*264 _0190_
*265 _0191_
*266 _0192_
*267 _0193_
*268 _0194_
*269 _0195_
*270 _0196_
*271 _0197_
*272 _0198_
*273 _0199_
*274 _0200_
*275 _0201_
*276 _0202_
*277 _0203_
*278 _0204_
*279 _0205_
*280 _0206_
*281 _0207_
*282 _0208_
*283 _0209_
*284 _0210_
*285 _0211_
*286 _0212_
*287 _0213_
*288 _0214_
*289 _0215_
*290 _0216_
*291 _0217_
*292 _0218_
*293 _0219_
*294 _0220_
*295 _0221_
*296 _0222_
*297 _0223_
*298 _0224_
*299 _0225_
*300 _0226_
*301 _0227_
*302 _0228_
*303 _0229_
*304 _0230_
*305 _0231_
*306 _0232_
*307 _0233_
*308 _0234_
*309 _0235_
*310 _0236_
*311 _0237_
*312 _0238_
*313 _0239_
*314 _0240_
*315 _0241_
*316 _0242_
*317 _0243_
*318 _0244_
*319 _0245_
*320 _0246_
*321 _0247_
*322 _0248_
*323 _0249_
*324 _0250_
*325 _0251_
*326 _0252_
*327 _0253_
*328 _0254_
*329 _0255_
*330 _0256_
*331 _0257_
*332 _0258_
*333 _0259_
*334 _0260_
*335 _0261_
*336 _0262_
*337 _0263_
*338 _0264_
*339 _0265_
*340 _0266_
*341 _0267_
*342 _0268_
*343 _0269_
*344 _0270_
*345 _0271_
*346 _0272_
*347 _0273_
*348 _0274_
*349 _0275_
*350 _0276_
*351 _0277_
*352 _0278_
*353 _0279_
*354 _0280_
*355 _0281_
*356 _0282_
*357 _0283_
*358 _0284_
*359 _0285_
*360 _0286_
*361 _0287_
*362 _0288_
*363 _0289_
*364 _0290_
*365 _0291_
*366 _0292_
*367 _0293_
*368 _0294_
*369 _0295_
*370 _0296_
*371 _0297_
*372 _0298_
*373 _0299_
*374 _0300_
*375 _0301_
*376 _0302_
*377 _0303_
*378 _0304_
*379 _0305_
*380 _0306_
*381 _0307_
*382 _0308_
*383 _0309_
*384 _0310_
*385 _0311_
*386 _0312_
*387 _0313_
*388 _0314_
*389 _0315_
*390 _0316_
*391 _0317_
*392 _0318_
*393 _0319_
*394 _0320_
*395 _0321_
*396 _0322_
*397 _0323_
*398 _0324_
*399 _0325_
*400 _0326_
*401 _0327_
*402 _0328_
*403 _0329_
*404 _0330_
*405 _0331_
*406 _0332_
*407 _0333_
*408 _0334_
*409 _0335_
*410 _0336_
*411 _0337_
*412 _0338_
*413 _0339_
*414 _0340_
*415 _0341_
*416 _0342_
*417 _0343_
*418 _0344_
*419 _0345_
*420 _0346_
*421 _0347_
*422 _0348_
*423 _0349_
*424 _0350_
*425 _0351_
*426 _0352_
*427 _0353_
*428 _0354_
*429 _0355_
*430 _0356_
*431 _0357_
*432 _0358_
*433 _0359_
*434 _0360_
*435 _0361_
*436 _0362_
*437 _0363_
*438 _0364_
*439 _0365_
*440 _0366_
*441 _0367_
*442 _0368_
*443 _0369_
*444 _0370_
*445 _0371_
*446 _0372_
*447 _0373_
*448 _0374_
*449 _0375_
*450 _0376_
*451 _0377_
*452 _0378_
*453 _0379_
*454 _0380_
*455 _0381_
*456 _0382_
*457 _0383_
*458 _0384_
*459 _0385_
*460 _0386_
*461 _0387_
*462 _0388_
*463 _0389_
*464 _0390_
*465 _0391_
*466 _0392_
*467 _0393_
*468 _0394_
*469 _0395_
*470 _0396_
*471 _0397_
*472 _0398_
*473 _0399_
*474 _0400_
*475 _0401_
*476 _0402_
*477 _0403_
*478 _0404_
*479 _0405_
*480 _0406_
*481 _0407_
*482 _0408_
*483 _0409_
*484 _0410_
*485 _0411_
*486 _0412_
*487 _0413_
*488 _0414_
*489 _0415_
*490 _0416_
*491 _0417_
*492 _0418_
*493 _0419_
*494 _0420_
*495 _0421_
*496 _0422_
*497 _0423_
*498 _0424_
*499 _0425_
*500 _0426_
*501 _0427_
*502 _0428_
*503 _0429_
*504 _0430_
*505 _0431_
*506 _0432_
*507 _0433_
*508 _0434_
*509 _0435_
*510 _0436_
*511 _0437_
*512 _0438_
*513 _0439_
*514 _0440_
*515 _0441_
*516 _0442_
*517 _0443_
*518 _0444_
*519 _0445_
*520 _0446_
*521 _0447_
*522 _0448_
*523 _0449_
*524 _0450_
*525 _0451_
*526 _0452_
*527 _0453_
*528 _0454_
*529 _0455_
*530 _0456_
*531 _0457_
*532 _0458_
*533 _0459_
*534 _0460_
*535 _0461_
*536 _0462_
*537 _0463_
*538 _0464_
*539 _0465_
*540 _0466_
*541 _0467_
*542 _0468_
*543 _0469_
*544 _0470_
*545 _0471_
*546 _0472_
*547 _0473_
*548 _0474_
*549 _0475_
*550 _0476_
*551 _0477_
*552 _0478_
*553 _0479_
*554 _0480_
*555 _0481_
*556 _0482_
*557 _0483_
*558 _0484_
*559 _0485_
*560 _0486_
*561 _0487_
*562 _0488_
*563 _0489_
*564 _0490_
*565 _0491_
*566 _0492_
*567 _0493_
*568 _0494_
*569 _0495_
*570 _0496_
*571 _0497_
*572 _0498_
*573 _0499_
*574 _0500_
*575 _0501_
*576 _0502_
*577 _0503_
*578 _0504_
*579 _0505_
*580 _0506_
*581 _0507_
*582 _0508_
*583 _0509_
*584 _0510_
*585 _0511_
*586 _0512_
*587 _0513_
*588 _0514_
*589 _0515_
*590 _0516_
*591 _0517_
*592 _0518_
*593 _0519_
*594 _0520_
*595 _0521_
*596 _0522_
*597 _0523_
*598 _0524_
*599 _0525_
*600 _0526_
*601 _0527_
*602 _0528_
*603 _0529_
*604 _0530_
*605 _0531_
*606 _0532_
*607 _0533_
*608 _0534_
*609 _0535_
*610 _0536_
*611 _0537_
*612 _0538_
*613 _0539_
*614 _0540_
*615 _0541_
*616 _0542_
*617 _0543_
*618 _0544_
*619 _0545_
*620 _0546_
*621 _0547_
*622 _0548_
*623 _0549_
*624 _0550_
*625 _0551_
*626 _0552_
*627 _0553_
*628 _0554_
*629 _0555_
*630 _0556_
*631 _0557_
*632 _0558_
*633 _0559_
*634 _0560_
*635 _0561_
*636 _0562_
*637 _0563_
*638 _0564_
*639 _0565_
*640 _0566_
*641 _0567_
*642 _0568_
*643 _0569_
*644 _0570_
*645 _0571_
*646 _0572_
*647 _0573_
*648 _0574_
*649 _0575_
*650 _0576_
*651 _0577_
*652 _0578_
*653 _0579_
*654 _0580_
*655 _0581_
*656 _0582_
*657 _0583_
*658 _0584_
*659 _0585_
*660 _0586_
*661 _0587_
*662 _0588_
*663 _0589_
*664 _0590_
*665 _0591_
*666 _0592_
*667 _0593_
*668 _0594_
*669 _0595_
*670 _0596_
*671 _0597_
*672 _0598_
*673 _0599_
*674 _0600_
*675 _0601_
*676 _0602_
*677 _0603_
*678 _0604_
*679 _0605_
*680 _0606_
*681 _0607_
*682 _0608_
*683 _0609_
*684 _0610_
*685 _0611_
*686 _0612_
*687 _0613_
*688 _0614_
*689 _0615_
*690 _0616_
*691 _0617_
*692 _0618_
*693 _0619_
*694 _0620_
*695 _0621_
*696 _0622_
*697 _0623_
*698 _0624_
*699 _0625_
*700 _0626_
*701 _0627_
*702 _0628_
*703 _0629_
*704 _0630_
*705 _0631_
*706 _0632_
*707 _0633_
*708 _0634_
*709 _0635_
*710 _0636_
*711 _0637_
*712 _0638_
*713 _0639_
*714 _0640_
*715 _0641_
*716 _0642_
*717 _0643_
*718 _0644_
*719 _0645_
*720 _0646_
*721 _0647_
*722 _0648_
*723 _0649_
*724 _0650_
*725 _0651_
*726 _0652_
*727 _0653_
*728 _0654_
*729 _0655_
*730 _0656_
*731 _0657_
*732 _0658_
*733 _0659_
*734 _0660_
*735 _0661_
*736 _0662_
*737 _0663_
*738 _0664_
*739 _0665_
*740 _0666_
*741 _0667_
*742 _0668_
*743 _0669_
*744 _0670_
*745 _0671_
*746 _0672_
*747 _0673_
*748 _0674_
*749 _0675_
*750 _0676_
*751 _0677_
*752 _0678_
*753 _0679_
*754 _0680_
*755 _0681_
*756 _0682_
*757 _0683_
*758 _0684_
*759 _0685_
*760 _0686_
*761 clknet_0_clk
*762 clknet_3_0__leaf_clk
*763 clknet_3_1__leaf_clk
*764 clknet_3_2__leaf_clk
*765 clknet_3_3__leaf_clk
*766 clknet_3_4__leaf_clk
*767 clknet_3_5__leaf_clk
*768 clknet_3_6__leaf_clk
*769 clknet_3_7__leaf_clk
*770 net1
*771 net10
*772 net100
*773 net101
*774 net102
*775 net103
*776 net104
*777 net105
*778 net106
*779 net107
*780 net108
*781 net109
*782 net11
*783 net110
*784 net111
*785 net112
*786 net113
*787 net114
*788 net115
*789 net116
*790 net117
*791 net118
*792 net119
*793 net12
*794 net120
*795 net121
*796 net122
*797 net123
*798 net124
*799 net125
*800 net126
*801 net127
*802 net128
*803 net129
*804 net13
*805 net130
*806 net131
*807 net132
*808 net133
*809 net134
*810 net135
*811 net136
*812 net137
*813 net138
*814 net139
*815 net14
*816 net140
*817 net141
*818 net142
*819 net143
*820 net144
*821 net145
*822 net146
*823 net147
*824 net148
*825 net149
*826 net15
*827 net150
*828 net151
*829 net152
*830 net153
*831 net154
*832 net155
*833 net156
*834 net157
*835 net158
*836 net159
*837 net16
*838 net160
*839 net161
*840 net162
*841 net163
*842 net164
*843 net165
*844 net166
*845 net167
*846 net168
*847 net169
*848 net17
*849 net170
*850 net171
*851 net172
*852 net173
*853 net174
*854 net175
*855 net176
*856 net177
*857 net178
*858 net179
*859 net18
*860 net180
*861 net181
*862 net182
*863 net183
*864 net184
*865 net185
*866 net186
*867 net187
*868 net188
*869 net189
*870 net19
*871 net190
*872 net191
*873 net192
*874 net193
*875 net194
*876 net195
*877 net196
*878 net197
*879 net198
*880 net199
*881 net2
*882 net20
*883 net200
*884 net201
*885 net202
*886 net203
*887 net204
*888 net205
*889 net206
*890 net207
*891 net208
*892 net209
*893 net21
*894 net210
*895 net211
*896 net212
*897 net213
*898 net214
*899 net215
*900 net216
*901 net217
*902 net218
*903 net219
*904 net22
*905 net220
*906 net221
*907 net222
*908 net223
*909 net224
*910 net225
*911 net226
*912 net227
*913 net228
*914 net229
*915 net23
*916 net24
*917 net25
*918 net26
*919 net27
*920 net28
*921 net282
*922 net283
*923 net284
*924 net285
*925 net286
*926 net287
*927 net288
*928 net289
*929 net29
*930 net290
*931 net291
*932 net292
*933 net293
*934 net294
*935 net295
*936 net296
*937 net297
*938 net298
*939 net3
*940 net30
*941 net302
*942 net303
*943 net304
*944 net305
*945 net306
*946 net307
*947 net308
*948 net309
*949 net31
*950 net310
*951 net311
*952 net312
*953 net313
*954 net314
*955 net315
*956 net316
*957 net317
*958 net318
*959 net319
*960 net32
*961 net320
*962 net321
*963 net322
*964 net323
*965 net324
*966 net325
*967 net326
*968 net327
*969 net328
*970 net329
*971 net33
*972 net330
*973 net331
*974 net332
*975 net333
*976 net334
*977 net335
*978 net336
*979 net337
*980 net338
*981 net339
*982 net34
*983 net340
*984 net35
*985 net36
*986 net37
*987 net38
*988 net39
*989 net4
*990 net40
*991 net41
*992 net42
*993 net43
*994 net44
*995 net45
*996 net46
*997 net47
*998 net48
*999 net49
*1000 net5
*1001 net50
*1002 net51
*1003 net52
*1004 net53
*1005 net54
*1006 net55
*1007 net56
*1008 net57
*1009 net58
*1010 net59
*1011 net6
*1012 net60
*1013 net61
*1014 net62
*1015 net63
*1016 net64
*1017 net65
*1018 net66
*1019 net67
*1020 net68
*1021 net69
*1022 net7
*1023 net70
*1024 net71
*1025 net72
*1026 net73
*1027 net74
*1028 net75
*1029 net76
*1030 net77
*1031 net78
*1032 net79
*1033 net8
*1034 net80
*1035 net81
*1036 net82
*1037 net83
*1038 net84
*1039 net85
*1040 net86
*1041 net87
*1042 net88
*1043 net89
*1044 net9
*1045 net90
*1046 net91
*1047 net92
*1048 net93
*1049 net94
*1050 net95
*1051 net96
*1052 net97
*1053 net98
*1054 net99
*1055 product_reg\[0\]
*1056 product_reg\[10\]
*1057 product_reg\[11\]
*1058 product_reg\[12\]
*1059 product_reg\[13\]
*1060 product_reg\[14\]
*1061 product_reg\[15\]
*1062 product_reg\[1\]
*1063 product_reg\[2\]
*1064 product_reg\[3\]
*1065 product_reg\[4\]
*1066 product_reg\[5\]
*1067 product_reg\[6\]
*1068 product_reg\[7\]
*1069 product_reg\[8\]
*1070 product_reg\[9\]
*1071 v_pipe
*1072 FILLER_0_111
*1073 FILLER_0_138
*1074 FILLER_0_141
*1075 FILLER_0_195
*1076 FILLER_0_223
*1077 FILLER_0_231
*1078 FILLER_0_243
*1079 FILLER_0_251
*1080 FILLER_0_253
*1081 FILLER_0_3
*1082 FILLER_10_108
*1083 FILLER_10_131
*1084 FILLER_10_158
*1085 FILLER_10_191
*1086 FILLER_10_195
*1087 FILLER_10_209
*1088 FILLER_10_218
*1089 FILLER_10_235
*1090 FILLER_10_239
*1091 FILLER_10_247
*1092 FILLER_10_253
*1093 FILLER_10_90
*1094 FILLER_11_167
*1095 FILLER_11_169
*1096 FILLER_11_205
*1097 FILLER_11_218
*1098 FILLER_11_229
*1099 FILLER_11_235
*1100 FILLER_11_253
*1101 FILLER_11_3
*1102 FILLER_11_37
*1103 FILLER_11_66
*1104 FILLER_12_138
*1105 FILLER_12_154
*1106 FILLER_12_158
*1107 FILLER_12_175
*1108 FILLER_12_201
*1109 FILLER_12_222
*1110 FILLER_12_233
*1111 FILLER_12_253
*1112 FILLER_12_29
*1113 FILLER_12_77
*1114 FILLER_13_138
*1115 FILLER_13_142
*1116 FILLER_13_150
*1117 FILLER_13_162
*1118 FILLER_13_169
*1119 FILLER_13_193
*1120 FILLER_13_210
*1121 FILLER_13_215
*1122 FILLER_13_223
*1123 FILLER_13_23
*1124 FILLER_13_235
*1125 FILLER_13_253
*1126 FILLER_13_48
*1127 FILLER_13_63
*1128 FILLER_14_154
*1129 FILLER_14_191
*1130 FILLER_14_195
*1131 FILLER_14_207
*1132 FILLER_14_234
*1133 FILLER_14_245
*1134 FILLER_14_253
*1135 FILLER_14_27
*1136 FILLER_14_40
*1137 FILLER_14_62
*1138 FILLER_14_70
*1139 FILLER_14_78
*1140 FILLER_14_85
*1141 FILLER_15_12
*1142 FILLER_15_125
*1143 FILLER_15_167
*1144 FILLER_15_194
*1145 FILLER_15_206
*1146 FILLER_15_232
*1147 FILLER_15_244
*1148 FILLER_15_40
*1149 FILLER_15_57
*1150 FILLER_15_65
*1151 FILLER_15_7
*1152 FILLER_15_88
*1153 FILLER_16_113
*1154 FILLER_16_139
*1155 FILLER_16_169
*1156 FILLER_16_186
*1157 FILLER_16_193
*1158 FILLER_16_197
*1159 FILLER_16_209
*1160 FILLER_16_221
*1161 FILLER_16_229
*1162 FILLER_16_253
*1163 FILLER_16_27
*1164 FILLER_16_62
*1165 FILLER_16_78
*1166 FILLER_16_85
*1167 FILLER_16_93
*1168 FILLER_17_120
*1169 FILLER_17_129
*1170 FILLER_17_185
*1171 FILLER_17_203
*1172 FILLER_17_211
*1173 FILLER_17_221
*1174 FILLER_17_225
*1175 FILLER_17_229
*1176 FILLER_17_253
*1177 FILLER_17_3
*1178 FILLER_17_34
*1179 FILLER_17_42
*1180 FILLER_17_55
*1181 FILLER_17_57
*1182 FILLER_17_91
*1183 FILLER_17_99
*1184 FILLER_18_121
*1185 FILLER_18_138
*1186 FILLER_18_152
*1187 FILLER_18_167
*1188 FILLER_18_228
*1189 FILLER_18_235
*1190 FILLER_18_253
*1191 FILLER_18_51
*1192 FILLER_18_63
*1193 FILLER_18_75
*1194 FILLER_18_83
*1195 FILLER_18_85
*1196 FILLER_19_118
*1197 FILLER_19_164
*1198 FILLER_19_201
*1199 FILLER_19_205
*1200 FILLER_19_221
*1201 FILLER_19_237
*1202 FILLER_19_245
*1203 FILLER_19_34
*1204 FILLER_19_65
*1205 FILLER_19_75
*1206 FILLER_19_83
*1207 FILLER_19_89
*1208 FILLER_1_160
*1209 FILLER_1_178
*1210 FILLER_1_223
*1211 FILLER_1_242
*1212 FILLER_1_248
*1213 FILLER_1_252
*1214 FILLER_1_94
*1215 FILLER_20_167
*1216 FILLER_20_174
*1217 FILLER_20_194
*1218 FILLER_20_197
*1219 FILLER_20_209
*1220 FILLER_20_25
*1221 FILLER_20_253
*1222 FILLER_20_57
*1223 FILLER_20_65
*1224 FILLER_20_83
*1225 FILLER_21_110
*1226 FILLER_21_116
*1227 FILLER_21_15
*1228 FILLER_21_161
*1229 FILLER_21_191
*1230 FILLER_21_203
*1231 FILLER_21_248
*1232 FILLER_21_28
*1233 FILLER_21_38
*1234 FILLER_21_46
*1235 FILLER_21_54
*1236 FILLER_21_63
*1237 FILLER_21_7
*1238 FILLER_21_75
*1239 FILLER_21_86
*1240 FILLER_21_98
*1241 FILLER_22_108
*1242 FILLER_22_13
*1243 FILLER_22_139
*1244 FILLER_22_154
*1245 FILLER_22_158
*1246 FILLER_22_17
*1247 FILLER_22_195
*1248 FILLER_22_197
*1249 FILLER_22_206
*1250 FILLER_22_228
*1251 FILLER_22_241
*1252 FILLER_22_247
*1253 FILLER_22_25
*1254 FILLER_22_253
*1255 FILLER_22_29
*1256 FILLER_22_67
*1257 FILLER_22_7
*1258 FILLER_22_75
*1259 FILLER_22_81
*1260 FILLER_22_89
*1261 FILLER_22_96
*1262 FILLER_23_111
*1263 FILLER_23_140
*1264 FILLER_23_19
*1265 FILLER_23_194
*1266 FILLER_23_253
*1267 FILLER_23_33
*1268 FILLER_23_41
*1269 FILLER_23_54
*1270 FILLER_23_74
*1271 FILLER_23_99
*1272 FILLER_24_122
*1273 FILLER_24_150
*1274 FILLER_24_19
*1275 FILLER_24_192
*1276 FILLER_24_197
*1277 FILLER_24_253
*1278 FILLER_24_44
*1279 FILLER_24_66
*1280 FILLER_24_72
*1281 FILLER_24_83
*1282 FILLER_24_97
*1283 FILLER_25_103
*1284 FILLER_25_120
*1285 FILLER_25_14
*1286 FILLER_25_169
*1287 FILLER_25_189
*1288 FILLER_25_20
*1289 FILLER_25_230
*1290 FILLER_25_251
*1291 FILLER_25_39
*1292 FILLER_25_46
*1293 FILLER_25_50
*1294 FILLER_25_54
*1295 FILLER_25_81
*1296 FILLER_26_11
*1297 FILLER_26_164
*1298 FILLER_26_197
*1299 FILLER_26_224
*1300 FILLER_26_23
*1301 FILLER_26_253
*1302 FILLER_26_27
*1303 FILLER_26_29
*1304 FILLER_26_41
*1305 FILLER_26_70
*1306 FILLER_26_85
*1307 FILLER_27_173
*1308 FILLER_27_177
*1309 FILLER_27_200
*1310 FILLER_27_24
*1311 FILLER_27_253
*1312 FILLER_27_45
*1313 FILLER_27_53
*1314 FILLER_27_75
*1315 FILLER_27_90
*1316 FILLER_28_106
*1317 FILLER_28_138
*1318 FILLER_28_160
*1319 FILLER_28_19
*1320 FILLER_28_194
*1321 FILLER_28_205
*1322 FILLER_28_231
*1323 FILLER_28_253
*1324 FILLER_28_45
*1325 FILLER_28_74
*1326 FILLER_28_82
*1327 FILLER_28_85
*1328 FILLER_29_108
*1329 FILLER_29_113
*1330 FILLER_29_143
*1331 FILLER_29_18
*1332 FILLER_29_185
*1333 FILLER_29_218
*1334 FILLER_29_232
*1335 FILLER_29_252
*1336 FILLER_29_26
*1337 FILLER_29_46
*1338 FILLER_29_57
*1339 FILLER_29_7
*1340 FILLER_29_96
*1341 FILLER_2_110
*1342 FILLER_2_138
*1343 FILLER_2_253
*1344 FILLER_30_104
*1345 FILLER_30_110
*1346 FILLER_30_122
*1347 FILLER_30_130
*1348 FILLER_30_134
*1349 FILLER_30_138
*1350 FILLER_30_141
*1351 FILLER_30_15
*1352 FILLER_30_153
*1353 FILLER_30_165
*1354 FILLER_30_177
*1355 FILLER_30_189
*1356 FILLER_30_195
*1357 FILLER_30_197
*1358 FILLER_30_205
*1359 FILLER_30_231
*1360 FILLER_30_253
*1361 FILLER_30_27
*1362 FILLER_30_29
*1363 FILLER_30_3
*1364 FILLER_30_41
*1365 FILLER_30_53
*1366 FILLER_30_63
*1367 FILLER_30_73
*1368 FILLER_30_81
*1369 FILLER_30_96
*1370 FILLER_31_111
*1371 FILLER_31_118
*1372 FILLER_31_130
*1373 FILLER_31_139
*1374 FILLER_31_148
*1375 FILLER_31_15
*1376 FILLER_31_158
*1377 FILLER_31_166
*1378 FILLER_31_169
*1379 FILLER_31_181
*1380 FILLER_31_193
*1381 FILLER_31_205
*1382 FILLER_31_211
*1383 FILLER_31_232
*1384 FILLER_31_252
*1385 FILLER_31_3
*1386 FILLER_31_40
*1387 FILLER_31_52
*1388 FILLER_31_57
*1389 FILLER_31_66
*1390 FILLER_31_78
*1391 FILLER_31_86
*1392 FILLER_32_178
*1393 FILLER_32_187
*1394 FILLER_32_253
*1395 FILLER_32_27
*1396 FILLER_32_29
*1397 FILLER_32_44
*1398 FILLER_32_56
*1399 FILLER_32_7
*1400 FILLER_32_75
*1401 FILLER_32_83
*1402 FILLER_33_113
*1403 FILLER_33_138
*1404 FILLER_33_169
*1405 FILLER_33_19
*1406 FILLER_33_31
*1407 FILLER_33_50
*1408 FILLER_33_80
*1409 FILLER_33_96
*1410 FILLER_34_110
*1411 FILLER_34_127
*1412 FILLER_34_139
*1413 FILLER_34_145
*1414 FILLER_34_181
*1415 FILLER_34_195
*1416 FILLER_34_197
*1417 FILLER_34_253
*1418 FILLER_34_27
*1419 FILLER_34_29
*1420 FILLER_34_45
*1421 FILLER_34_85
*1422 FILLER_34_89
*1423 FILLER_35_11
*1424 FILLER_35_125
*1425 FILLER_35_131
*1426 FILLER_35_165
*1427 FILLER_35_18
*1428 FILLER_35_219
*1429 FILLER_35_230
*1430 FILLER_35_26
*1431 FILLER_35_35
*1432 FILLER_35_41
*1433 FILLER_35_46
*1434 FILLER_36_105
*1435 FILLER_36_111
*1436 FILLER_36_129
*1437 FILLER_36_137
*1438 FILLER_36_141
*1439 FILLER_36_15
*1440 FILLER_36_153
*1441 FILLER_36_161
*1442 FILLER_36_178
*1443 FILLER_36_194
*1444 FILLER_36_205
*1445 FILLER_36_21
*1446 FILLER_36_210
*1447 FILLER_36_250
*1448 FILLER_36_253
*1449 FILLER_36_27
*1450 FILLER_36_29
*1451 FILLER_36_41
*1452 FILLER_36_53
*1453 FILLER_36_63
*1454 FILLER_36_7
*1455 FILLER_36_80
*1456 FILLER_36_85
*1457 FILLER_37_100
*1458 FILLER_37_129
*1459 FILLER_37_146
*1460 FILLER_37_158
*1461 FILLER_37_167
*1462 FILLER_37_169
*1463 FILLER_37_182
*1464 FILLER_37_207
*1465 FILLER_37_249
*1466 FILLER_37_26
*1467 FILLER_37_54
*1468 FILLER_37_57
*1469 FILLER_37_65
*1470 FILLER_37_90
*1471 FILLER_37_94
*1472 FILLER_38_135
*1473 FILLER_38_139
*1474 FILLER_38_144
*1475 FILLER_38_153
*1476 FILLER_38_172
*1477 FILLER_38_183
*1478 FILLER_38_189
*1479 FILLER_38_194
*1480 FILLER_38_253
*1481 FILLER_38_29
*1482 FILLER_38_41
*1483 FILLER_38_59
*1484 FILLER_38_71
*1485 FILLER_38_83
*1486 FILLER_38_85
*1487 FILLER_38_89
*1488 FILLER_39_111
*1489 FILLER_39_124
*1490 FILLER_39_185
*1491 FILLER_39_23
*1492 FILLER_39_235
*1493 FILLER_39_252
*1494 FILLER_39_3
*1495 FILLER_39_65
*1496 FILLER_39_74
*1497 FILLER_3_130
*1498 FILLER_3_167
*1499 FILLER_3_200
*1500 FILLER_3_228
*1501 FILLER_3_252
*1502 FILLER_3_41
*1503 FILLER_3_83
*1504 FILLER_40_139
*1505 FILLER_40_166
*1506 FILLER_40_177
*1507 FILLER_40_19
*1508 FILLER_40_253
*1509 FILLER_40_36
*1510 FILLER_40_44
*1511 FILLER_40_82
*1512 FILLER_41_117
*1513 FILLER_41_150
*1514 FILLER_41_57
*1515 FILLER_42_14
*1516 FILLER_42_156
*1517 FILLER_42_166
*1518 FILLER_42_169
*1519 FILLER_42_178
*1520 FILLER_42_186
*1521 FILLER_42_250
*1522 FILLER_42_253
*1523 FILLER_42_26
*1524 FILLER_42_29
*1525 FILLER_42_3
*1526 FILLER_42_7
*1527 FILLER_42_78
*1528 FILLER_4_122
*1529 FILLER_4_149
*1530 FILLER_4_181
*1531 FILLER_4_195
*1532 FILLER_4_215
*1533 FILLER_4_221
*1534 FILLER_4_251
*1535 FILLER_4_253
*1536 FILLER_4_29
*1537 FILLER_4_3
*1538 FILLER_4_83
*1539 FILLER_5_166
*1540 FILLER_5_185
*1541 FILLER_5_208
*1542 FILLER_5_220
*1543 FILLER_5_225
*1544 FILLER_5_239
*1545 FILLER_5_247
*1546 FILLER_5_252
*1547 FILLER_5_57
*1548 FILLER_6_106
*1549 FILLER_6_139
*1550 FILLER_6_173
*1551 FILLER_6_188
*1552 FILLER_6_194
*1553 FILLER_6_209
*1554 FILLER_6_239
*1555 FILLER_6_251
*1556 FILLER_6_253
*1557 FILLER_6_3
*1558 FILLER_6_39
*1559 FILLER_6_92
*1560 FILLER_7_135
*1561 FILLER_7_169
*1562 FILLER_7_188
*1563 FILLER_7_192
*1564 FILLER_7_212
*1565 FILLER_7_251
*1566 FILLER_7_57
*1567 FILLER_8_126
*1568 FILLER_8_139
*1569 FILLER_8_151
*1570 FILLER_8_192
*1571 FILLER_8_217
*1572 FILLER_8_246
*1573 FILLER_8_253
*1574 FILLER_8_3
*1575 FILLER_9_101
*1576 FILLER_9_141
*1577 FILLER_9_167
*1578 FILLER_9_217
*1579 FILLER_9_225
*1580 FILLER_9_242
*1581 FILLER_9_250
*1582 PHY_EDGE_ROW_0_Left_43
*1583 PHY_EDGE_ROW_0_Right_0
*1584 PHY_EDGE_ROW_10_Left_53
*1585 PHY_EDGE_ROW_10_Right_10
*1586 PHY_EDGE_ROW_11_Left_54
*1587 PHY_EDGE_ROW_11_Right_11
*1588 PHY_EDGE_ROW_12_Left_55
*1589 PHY_EDGE_ROW_12_Right_12
*1590 PHY_EDGE_ROW_13_Left_56
*1591 PHY_EDGE_ROW_13_Right_13
*1592 PHY_EDGE_ROW_14_Left_57
*1593 PHY_EDGE_ROW_14_Right_14
*1594 PHY_EDGE_ROW_15_Left_58
*1595 PHY_EDGE_ROW_15_Right_15
*1596 PHY_EDGE_ROW_16_Left_59
*1597 PHY_EDGE_ROW_16_Right_16
*1598 PHY_EDGE_ROW_17_Left_60
*1599 PHY_EDGE_ROW_17_Right_17
*1600 PHY_EDGE_ROW_18_Left_61
*1601 PHY_EDGE_ROW_18_Right_18
*1602 PHY_EDGE_ROW_19_Left_62
*1603 PHY_EDGE_ROW_19_Right_19
*1604 PHY_EDGE_ROW_1_Left_44
*1605 PHY_EDGE_ROW_1_Right_1
*1606 PHY_EDGE_ROW_20_Left_63
*1607 PHY_EDGE_ROW_20_Right_20
*1608 PHY_EDGE_ROW_21_Left_64
*1609 PHY_EDGE_ROW_21_Right_21
*1610 PHY_EDGE_ROW_22_Left_65
*1611 PHY_EDGE_ROW_22_Right_22
*1612 PHY_EDGE_ROW_23_Left_66
*1613 PHY_EDGE_ROW_23_Right_23
*1614 PHY_EDGE_ROW_24_Left_67
*1615 PHY_EDGE_ROW_24_Right_24
*1616 PHY_EDGE_ROW_25_Left_68
*1617 PHY_EDGE_ROW_25_Right_25
*1618 PHY_EDGE_ROW_26_Left_69
*1619 PHY_EDGE_ROW_26_Right_26
*1620 PHY_EDGE_ROW_27_Left_70
*1621 PHY_EDGE_ROW_27_Right_27
*1622 PHY_EDGE_ROW_28_Left_71
*1623 PHY_EDGE_ROW_28_Right_28
*1624 PHY_EDGE_ROW_29_Left_72
*1625 PHY_EDGE_ROW_29_Right_29
*1626 PHY_EDGE_ROW_2_Left_45
*1627 PHY_EDGE_ROW_2_Right_2
*1628 PHY_EDGE_ROW_30_Left_73
*1629 PHY_EDGE_ROW_30_Right_30
*1630 PHY_EDGE_ROW_31_Left_74
*1631 PHY_EDGE_ROW_31_Right_31
*1632 PHY_EDGE_ROW_32_Left_75
*1633 PHY_EDGE_ROW_32_Right_32
*1634 PHY_EDGE_ROW_33_Left_76
*1635 PHY_EDGE_ROW_33_Right_33
*1636 PHY_EDGE_ROW_34_Left_77
*1637 PHY_EDGE_ROW_34_Right_34
*1638 PHY_EDGE_ROW_35_Left_78
*1639 PHY_EDGE_ROW_35_Right_35
*1640 PHY_EDGE_ROW_36_Left_79
*1641 PHY_EDGE_ROW_36_Right_36
*1642 PHY_EDGE_ROW_37_Left_80
*1643 PHY_EDGE_ROW_37_Right_37
*1644 PHY_EDGE_ROW_38_Left_81
*1645 PHY_EDGE_ROW_38_Right_38
*1646 PHY_EDGE_ROW_39_Left_82
*1647 PHY_EDGE_ROW_39_Right_39
*1648 PHY_EDGE_ROW_3_Left_46
*1649 PHY_EDGE_ROW_3_Right_3
*1650 PHY_EDGE_ROW_40_Left_83
*1651 PHY_EDGE_ROW_40_Right_40
*1652 PHY_EDGE_ROW_41_Left_84
*1653 PHY_EDGE_ROW_41_Right_41
*1654 PHY_EDGE_ROW_42_Left_85
*1655 PHY_EDGE_ROW_42_Right_42
*1656 PHY_EDGE_ROW_4_Left_47
*1657 PHY_EDGE_ROW_4_Right_4
*1658 PHY_EDGE_ROW_5_Left_48
*1659 PHY_EDGE_ROW_5_Right_5
*1660 PHY_EDGE_ROW_6_Left_49
*1661 PHY_EDGE_ROW_6_Right_6
*1662 PHY_EDGE_ROW_7_Left_50
*1663 PHY_EDGE_ROW_7_Right_7
*1664 PHY_EDGE_ROW_8_Left_51
*1665 PHY_EDGE_ROW_8_Right_8
*1666 PHY_EDGE_ROW_9_Left_52
*1667 PHY_EDGE_ROW_9_Right_9
*1668 TAP_TAPCELL_ROW_0_86
*1669 TAP_TAPCELL_ROW_0_87
*1670 TAP_TAPCELL_ROW_0_88
*1671 TAP_TAPCELL_ROW_0_89
*1672 TAP_TAPCELL_ROW_0_90
*1673 TAP_TAPCELL_ROW_0_91
*1674 TAP_TAPCELL_ROW_0_92
*1675 TAP_TAPCELL_ROW_0_93
*1676 TAP_TAPCELL_ROW_0_94
*1677 TAP_TAPCELL_ROW_10_135
*1678 TAP_TAPCELL_ROW_10_136
*1679 TAP_TAPCELL_ROW_10_137
*1680 TAP_TAPCELL_ROW_10_138
*1681 TAP_TAPCELL_ROW_10_139
*1682 TAP_TAPCELL_ROW_11_140
*1683 TAP_TAPCELL_ROW_11_141
*1684 TAP_TAPCELL_ROW_11_142
*1685 TAP_TAPCELL_ROW_11_143
*1686 TAP_TAPCELL_ROW_12_144
*1687 TAP_TAPCELL_ROW_12_145
*1688 TAP_TAPCELL_ROW_12_146
*1689 TAP_TAPCELL_ROW_12_147
*1690 TAP_TAPCELL_ROW_12_148
*1691 TAP_TAPCELL_ROW_13_149
*1692 TAP_TAPCELL_ROW_13_150
*1693 TAP_TAPCELL_ROW_13_151
*1694 TAP_TAPCELL_ROW_13_152
*1695 TAP_TAPCELL_ROW_14_153
*1696 TAP_TAPCELL_ROW_14_154
*1697 TAP_TAPCELL_ROW_14_155
*1698 TAP_TAPCELL_ROW_14_156
*1699 TAP_TAPCELL_ROW_14_157
*1700 TAP_TAPCELL_ROW_15_158
*1701 TAP_TAPCELL_ROW_15_159
*1702 TAP_TAPCELL_ROW_15_160
*1703 TAP_TAPCELL_ROW_15_161
*1704 TAP_TAPCELL_ROW_16_162
*1705 TAP_TAPCELL_ROW_16_163
*1706 TAP_TAPCELL_ROW_16_164
*1707 TAP_TAPCELL_ROW_16_165
*1708 TAP_TAPCELL_ROW_16_166
*1709 TAP_TAPCELL_ROW_17_167
*1710 TAP_TAPCELL_ROW_17_168
*1711 TAP_TAPCELL_ROW_17_169
*1712 TAP_TAPCELL_ROW_17_170
*1713 TAP_TAPCELL_ROW_18_171
*1714 TAP_TAPCELL_ROW_18_172
*1715 TAP_TAPCELL_ROW_18_173
*1716 TAP_TAPCELL_ROW_18_174
*1717 TAP_TAPCELL_ROW_18_175
*1718 TAP_TAPCELL_ROW_19_176
*1719 TAP_TAPCELL_ROW_19_177
*1720 TAP_TAPCELL_ROW_19_178
*1721 TAP_TAPCELL_ROW_19_179
*1722 TAP_TAPCELL_ROW_1_95
*1723 TAP_TAPCELL_ROW_1_96
*1724 TAP_TAPCELL_ROW_1_97
*1725 TAP_TAPCELL_ROW_1_98
*1726 TAP_TAPCELL_ROW_20_180
*1727 TAP_TAPCELL_ROW_20_181
*1728 TAP_TAPCELL_ROW_20_182
*1729 TAP_TAPCELL_ROW_20_183
*1730 TAP_TAPCELL_ROW_20_184
*1731 TAP_TAPCELL_ROW_21_185
*1732 TAP_TAPCELL_ROW_21_186
*1733 TAP_TAPCELL_ROW_21_187
*1734 TAP_TAPCELL_ROW_21_188
*1735 TAP_TAPCELL_ROW_22_189
*1736 TAP_TAPCELL_ROW_22_190
*1737 TAP_TAPCELL_ROW_22_191
*1738 TAP_TAPCELL_ROW_22_192
*1739 TAP_TAPCELL_ROW_22_193
*1740 TAP_TAPCELL_ROW_23_194
*1741 TAP_TAPCELL_ROW_23_195
*1742 TAP_TAPCELL_ROW_23_196
*1743 TAP_TAPCELL_ROW_23_197
*1744 TAP_TAPCELL_ROW_24_198
*1745 TAP_TAPCELL_ROW_24_199
*1746 TAP_TAPCELL_ROW_24_200
*1747 TAP_TAPCELL_ROW_24_201
*1748 TAP_TAPCELL_ROW_24_202
*1749 TAP_TAPCELL_ROW_25_203
*1750 TAP_TAPCELL_ROW_25_204
*1751 TAP_TAPCELL_ROW_25_205
*1752 TAP_TAPCELL_ROW_25_206
*1753 TAP_TAPCELL_ROW_26_207
*1754 TAP_TAPCELL_ROW_26_208
*1755 TAP_TAPCELL_ROW_26_209
*1756 TAP_TAPCELL_ROW_26_210
*1757 TAP_TAPCELL_ROW_26_211
*1758 TAP_TAPCELL_ROW_27_212
*1759 TAP_TAPCELL_ROW_27_213
*1760 TAP_TAPCELL_ROW_27_214
*1761 TAP_TAPCELL_ROW_27_215
*1762 TAP_TAPCELL_ROW_28_216
*1763 TAP_TAPCELL_ROW_28_217
*1764 TAP_TAPCELL_ROW_28_218
*1765 TAP_TAPCELL_ROW_28_219
*1766 TAP_TAPCELL_ROW_28_220
*1767 TAP_TAPCELL_ROW_29_221
*1768 TAP_TAPCELL_ROW_29_222
*1769 TAP_TAPCELL_ROW_29_223
*1770 TAP_TAPCELL_ROW_29_224
*1771 TAP_TAPCELL_ROW_2_100
*1772 TAP_TAPCELL_ROW_2_101
*1773 TAP_TAPCELL_ROW_2_102
*1774 TAP_TAPCELL_ROW_2_103
*1775 TAP_TAPCELL_ROW_2_99
*1776 TAP_TAPCELL_ROW_30_225
*1777 TAP_TAPCELL_ROW_30_226
*1778 TAP_TAPCELL_ROW_30_227
*1779 TAP_TAPCELL_ROW_30_228
*1780 TAP_TAPCELL_ROW_30_229
*1781 TAP_TAPCELL_ROW_31_230
*1782 TAP_TAPCELL_ROW_31_231
*1783 TAP_TAPCELL_ROW_31_232
*1784 TAP_TAPCELL_ROW_31_233
*1785 TAP_TAPCELL_ROW_32_234
*1786 TAP_TAPCELL_ROW_32_235
*1787 TAP_TAPCELL_ROW_32_236
*1788 TAP_TAPCELL_ROW_32_237
*1789 TAP_TAPCELL_ROW_32_238
*1790 TAP_TAPCELL_ROW_33_239
*1791 TAP_TAPCELL_ROW_33_240
*1792 TAP_TAPCELL_ROW_33_241
*1793 TAP_TAPCELL_ROW_33_242
*1794 TAP_TAPCELL_ROW_34_243
*1795 TAP_TAPCELL_ROW_34_244
*1796 TAP_TAPCELL_ROW_34_245
*1797 TAP_TAPCELL_ROW_34_246
*1798 TAP_TAPCELL_ROW_34_247
*1799 TAP_TAPCELL_ROW_35_248
*1800 TAP_TAPCELL_ROW_35_249
*1801 TAP_TAPCELL_ROW_35_250
*1802 TAP_TAPCELL_ROW_35_251
*1803 TAP_TAPCELL_ROW_36_252
*1804 TAP_TAPCELL_ROW_36_253
*1805 TAP_TAPCELL_ROW_36_254
*1806 TAP_TAPCELL_ROW_36_255
*1807 TAP_TAPCELL_ROW_36_256
*1808 TAP_TAPCELL_ROW_37_257
*1809 TAP_TAPCELL_ROW_37_258