*SPEF "ieee 1481-1999"
*DESIGN "PE"
*DATE "07:12:07 Friday March 13, 2026"
*VENDOR "The OpenROAD Project"
*PROGRAM "OpenROAD"
*VERSION "edf00dff99f6c40d67a30c0e22a8191c5d2ed9d6"
*DESIGN_FLOW "NAME_SCOPE LOCAL" "PIN_CAP NONE"
*DIVIDER /
*DELIMITER :
*BUS_DELIMITER []
*T_UNIT 1 NS
*C_UNIT 1 PF
*R_UNIT 1 OHM
*L_UNIT 1 HENRY

*NAME_MAP
*3 a_in[0]
*4 a_in[1]
*5 a_in[2]
*6 a_in[3]
*7 a_in[4]
*8 a_in[5]
*9 a_in[6]
*10 a_in[7]
*11 a_out[0]
*12 a_out[1]
*13 a_out[2]
*14 a_out[3]
*15 a_out[4]
*16 a_out[5]
*17 a_out[6]
*18 a_out[7]
*19 b_in[0]
*20 b_in[1]
*21 b_in[2]
*22 b_in[3]
*23 b_in[4]
*24 b_in[5]
*25 b_in[6]
*26 b_in[7]
*27 b_out[0]
*28 b_out[1]
*29 b_out[2]
*30 b_out[3]
*31 b_out[4]
*32 b_out[5]
*33 b_out[6]
*34 b_out[7]
*35 clear_acc
*36 clk
*37 psum[0]
*38 psum[10]
*39 psum[11]
*40 psum[12]
*41 psum[13]
*42 psum[14]
*43 psum[15]
*44 psum[16]
*45 psum[17]
*46 psum[18]
*47 psum[19]
*48 psum[1]
*49 psum[20]
*50 psum[21]
*51 psum[22]
*52 psum[23]
*53 psum[24]
*54 psum[25]
*55 psum[26]
*56 psum[27]
*57 psum[28]
*58 psum[29]
*59 psum[2]
*60 psum[30]
*61 psum[31]
*62 psum[3]
*63 psum[4]
*64 psum[5]
*65 psum[6]
*66 psum[7]
*67 psum[8]
*68 psum[9]
*69 reset
*70 v_a_in
*71 v_a_out
*72 v_b_in
*73 v_b_out
*74 _0000_
*75 _0001_
*76 _0002_
*77 _0003_
*78 _0004_
*79 _0005_
*80 _0006_
*81 _0007_
*82 _0008_
*83 _0009_
*84 _0010_
*85 _0011_
*86 _0012_
*87 _0013_
*88 _0014_
*89 _0015_
*90 _0016_
*91 _0017_
*92 _0018_
*93 _0019_
*94 _0020_
*95 _0021_
*96 _0022_
*97 _0023_
*98 _0024_
*99 _0025_
*100 _0026_
*101 _0027_
*102 _0028_
*103 _0029_
*104 _0030_
*105 _0031_
*106 _0032_
*107 _0033_
*108 _0034_
*109 _0035_
*110 _0036_
*111 _0037_
*112 _0038_
*113 _0039_
*114 _0040_
*115 _0041_
*116 _0042_
*117 _0043_
*118 _0044_
*119 _0045_
*120 _0046_
*121 _0047_
*122 _0048_
*123 _0049_
*124 _0050_
*125 _0051_
*126 _0052_
*127 _0053_
*128 _0054_
*129 _0055_
*130 _0056_
*131 _0057_
*132 _0058_
*133 _0059_
*134 _0060_
*135 _0061_
*136 _0062_
*137 _0063_
*138 _0064_
*139 _0065_
*140 _0066_
*141 _0067_
*142 _0068_
*143 _0069_
*144 _0070_
*145 _0071_
*146 _0072_
*147 _0073_
*148 _0074_
*149 _0075_
*150 _0076_
*151 _0077_
*152 _0078_
*153 _0079_
*154 _0080_
*155 _0081_
*156 _0082_
*157 _0083_
*158 _0084_
*159 _0085_
*160 _0086_
*161 _0087_
*162 _0088_
*163 _0089_
*164 _0090_
*165 _0091_
*166 _0092_
*167 _0093_
*168 _0094_
*169 _0095_
*170 _0096_
*171 _0097_
*172 _0098_
*173 _0099_
*174 _0100_
*175 _0101_
*176 _0102_
*177 _0103_
*178 _0104_
*179 _0105_
*180 _0106_
*181 _0107_
*182 _0108_
*183 _0109_
*184 _0110_
*185 _0111_
*186 _0112_
*187 _0113_
*188 _0114_
*189 _0115_
*190 _0116_
*191 _0117_
*192 _0118_
*193 _0119_
*194 _0120_
*195 _0121_
*196 _0122_
*197 _0123_
*198 _0124_
*199 _0125_
*200 _0126_
*201 _0127_
*202 _0128_
*203 _0129_
*204 _0130_
*205 _0131_
*206 _0132_
*207 _0133_
*208 _0134_
*209 _0135_
*210 _0136_
*211 _0137_
*212 _0138_
*213 _0139_
*214 _0140_
*215 _0141_
*216 _0142_
*217 _0143_
*218 _0144_
*219 _0145_
*220 _0146_
*221 _0147_
*222 _0148_
*223 _0149_
*224 _0150_
*225 _0151_
*226 _0152_
*227 _0153_
*228 _0154_
*229 _0155_
*230 _0156_
*231 _0157_
*232 _0158_
*233 _0159_
*234 _0160_
*235 _0161_
*236 _0162_
*237 _0163_
*238 _0164_
*239 _0165_
*240 _0166_
*241 _0167_
*242 _0168_
*243 _0169_
*244 _0170_
*245 _0171_
*246 _0172_
*247 _0173_
*248 _0174_
*249 _0175_
*250 _0176_
*251 _0177_
*252 _0178_
*253 _0179_
*254 _0180_
*255 _0181_
*256 _0182_
*257 _0183_
*258 _0184_
*259 _0185_
*260 _0186_
*261 _0187_
*262 _0188_
*263 _0189_
*264 _0190_
*265 _0191_
*266 _0192_
*267 _0193_
*268 _0194_
*269 _0195_
*270 _0196_
*271 _0197_
*272 _0198_
*273 _0199_
*274 _0200_
*275 _0201_
*276 _0202_
*277 _0203_
*278 _0204_
*279 _0205_
*280 _0206_
*281 _0207_
*282 _0208_
*283 _0209_
*284 _0210_
*285 _0211_
*286 _0212_
*287 _0213_
*288 _0214_
*289 _0215_
*290 _0216_
*291 _0217_
*292 _0218_
*293 _0219_
*294 _0220_
*295 _0221_
*296 _0222_
*297 _0223_
*298 _0224_
*299 _0225_
*300 _0226_
*301 _0227_
*302 _0228_
*303 _0229_
*304 _0230_
*305 _0231_
*306 _0232_
*307 _0233_
*308 _0234_
*309 _0235_
*310 _0236_
*311 _0237_
*312 _0238_
*313 _0239_
*314 _0240_
*315 _0241_
*316 _0242_
*317 _0243_
*318 _0244_
*319 _0245_
*320 _0246_
*321 _0247_
*322 _0248_
*323 _0249_
*324 _0250_
*325 _0251_
*326 _0252_
*327 _0253_
*328 _0254_
*329 _0255_
*330 _0256_
*331 _0257_
*332 _0258_
*333 _0259_
*334 _0260_
*335 _0261_
*336 _0262_
*337 _0263_
*338 _0264_
*339 _0265_
*340 _0266_
*341 _0267_
*342 _0268_
*343 _0269_
*344 _0270_
*345 _0271_
*346 _0272_
*347 _0273_
*348 _0274_
*349 _0275_
*350 _0276_
*351 _0277_
*352 _0278_
*353 _0279_
*354 _0280_
*355 _0281_
*356 _0282_
*357 _0283_
*358 _0284_
*359 _0285_
*360 _0286_
*361 _0287_
*362 _0288_
*363 _0289_
*364 _0290_
*365 _0291_
*366 _0292_
*367 _0293_
*368 _0294_
*369 _0295_
*370 _0296_
*371 _0297_
*372 _0298_
*373 _0299_
*374 _0300_
*375 _0301_
*376 _0302_
*377 _0303_
*378 _0304_
*379 _0305_
*380 _0306_
*381 _0307_
*382 _0308_
*383 _0309_
*384 _0310_
*385 _0311_
*386 _0312_
*387 _0313_
*388 _0314_
*389 _0315_
*390 _0316_
*391 _0317_
*392 _0318_
*393 _0319_
*394 _0320_
*395 _0321_
*396 _0322_
*397 _0323_
*398 _0324_
*399 _0325_
*400 _0326_
*401 _0327_
*402 _0328_
*403 _0329_
*404 _0330_
*405 _0331_
*406 _0332_
*407 _0333_
*408 _0334_
*409 _0335_
*410 _0336_
*411 _0337_
*412 _0338_
*413 _0339_
*414 _0340_
*415 _0341_
*416 _0342_
*417 _0343_
*418 _0344_
*419 _0345_
*420 _0346_
*421 _0347_
*422 _0348_
*423 _0349_
*424 _0350_
*425 _0351_
*426 _0352_
*427 _0353_
*428 _0354_
*429 _0355_
*430 _0356_
*431 _0357_
*432 _0358_
*433 _0359_
*434 _0360_
*435 _0361_
*436 _0362_
*437 _0363_
*438 _0364_
*439 _0365_
*440 _0366_
*441 _0367_
*442 _0368_
*443 _0369_
*444 _0370_
*445 _0371_
*446 _0372_
*447 _0373_
*448 _0374_
*449 _0375_
*450 _0376_
*451 _0377_
*452 _0378_
*453 _0379_
*454 _0380_
*455 _0381_
*456 _0382_
*457 _0383_
*458 _0384_
*459 _0385_
*460 _0386_
*461 _0387_
*462 _0388_
*463 _0389_
*464 _0390_
*465 _0391_
*466 _0392_
*467 _0393_
*468 _0394_
*469 _0395_
*470 _0396_
*471 _0397_
*472 _0398_
*473 _0399_
*474 _0400_
*475 _0401_
*476 _0402_
*477 _0403_
*478 _0404_
*479 _0405_
*480 _0406_
*481 _0407_
*482 _0408_
*483 _0409_
*484 _0410_
*485 _0411_
*486 _0412_
*487 _0413_
*488 _0414_
*489 _0415_
*490 _0416_
*491 _0417_
*492 _0418_
*493 _0419_
*494 _0420_
*495 _0421_
*496 _0422_
*497 _0423_
*498 _0424_
*499 _0425_
*500 _0426_
*501 _0427_
*502 _0428_
*503 _0429_
*504 _0430_
*505 _0431_
*506 _0432_
*507 _0433_
*508 _0434_
*509 _0435_
*510 _0436_
*511 _0437_
*512 _0438_
*513 _0439_
*514 _0440_
*515 _0441_
*516 _0442_
*517 _0443_
*518 _0444_
*519 _0445_
*520 _0446_
*521 _0447_
*522 _0448_
*523 _0449_
*524 _0450_
*525 _0451_
*526 _0452_
*527 _0453_
*528 _0454_
*529 _0455_
*530 _0456_
*531 _0457_
*532 _0458_
*533 _0459_
*534 _0460_
*535 _0461_
*536 _0462_
*537 _0463_
*538 _0464_
*539 _0465_
*540 _0466_
*541 _0467_
*542 _0468_
*543 _0469_
*544 _0470_
*545 _0471_
*546 _0472_
*547 _0473_
*548 _0474_
*549 _0475_
*550 _0476_
*551 _0477_
*552 _0478_
*553 _0479_
*554 _0480_
*555 _0481_
*556 _0482_
*557 _0483_
*558 _0484_
*559 _0485_
*560 _0486_
*561 _0487_
*562 _0488_
*563 _0489_
*564 _0490_
*565 _0491_
*566 _0492_
*567 _0493_
*568 _0494_
*569 _0495_
*570 _0496_
*571 _0497_
*572 _0498_
*573 _0499_
*574 _0500_
*575 _0501_
*576 _0502_
*577 _0503_
*578 _0504_
*579 _0505_
*580 _0506_
*581 _0507_
*582 _0508_
*583 _0509_
*584 _0510_
*585 _0511_
*586 _0512_
*587 _0513_
*588 _0514_
*589 _0515_
*590 _0516_
*591 _0517_
*592 _0518_
*593 _0519_
*594 _0520_
*595 _0521_
*596 _0522_
*597 _0523_
*598 _0524_
*599 _0525_
*600 _0526_
*601 _0527_
*602 _0528_
*603 _0529_
*604 _0530_
*605 _0531_
*606 _0532_
*607 _0533_
*608 _0534_
*609 _0535_
*610 _0536_
*611 _0537_
*612 _0538_
*613 _0539_
*614 _0540_
*615 _0541_
*616 _0542_
*617 _0543_
*618 _0544_
*619 _0545_
*620 _0546_
*621 _0547_
*622 _0548_
*623 _0549_
*624 _0550_
*625 _0551_
*626 _0552_
*627 _0553_
*628 _0554_
*629 _0555_
*630 _0556_
*631 _0557_
*632 _0558_
*633 _0559_
*634 _0560_
*635 _0561_
*636 _0562_
*637 _0563_
*638 _0564_
*639 _0565_
*640 _0566_
*641 _0567_
*642 _0568_
*643 _0569_
*644 _0570_
*645 _0571_
*646 _0572_
*647 _0573_
*648 _0574_
*649 _0575_
*650 _0576_
*651 _0577_
*652 _0578_
*653 _0579_
*654 _0580_
*655 _0581_
*656 _0582_
*657 _0583_
*658 _0584_
*659 _0585_
*660 _0586_
*661 _0587_
*662 _0588_
*663 _0589_
*664 _0590_
*665 _0591_
*666 _0592_
*667 _0593_
*668 _0594_
*669 _0595_
*670 _0596_
*671 _0597_
*672 _0598_
*673 _0599_
*674 _0600_
*675 _0601_
*676 _0602_
*677 _0603_
*678 _0604_
*679 _0605_
*680 _0606_
*681 _0607_
*682 _0608_
*683 _0609_
*684 _0610_
*685 _0611_
*686 _0612_
*687 _0613_
*688 _0614_
*689 _0615_
*690 _0616_
*691 _0617_
*692 _0618_
*693 _0619_
*694 _0620_
*695 _0621_
*696 _0622_
*697 _0623_
*698 _0624_
*699 _0625_
*700 _0626_
*701 _0627_
*702 _0628_
*703 _0629_
*704 _0630_
*705 _0631_
*706 _0632_
*707 _0633_
*708 _0634_
*709 _0635_
*710 _0636_
*711 _0637_
*712 _0638_
*713 _0639_
*714 _0640_
*715 _0641_
*716 _0642_
*717 _0643_
*718 _0644_
*719 _0645_
*720 _0646_
*721 _0647_
*722 _0648_
*723 _0649_
*724 _0650_
*725 _0651_
*726 _0652_
*727 _0653_
*728 _0654_
*729 _0655_
*730 _0656_
*731 _0657_
*732 _0658_
*733 _0659_
*734 _0660_
*735 _0661_
*736 _0662_
*737 _0663_
*738 _0664_
*739 _0665_
*740 _0666_
*741 _0667_
*742 _0668_
*743 _0669_
*744 _0670_
*745 _0671_
*746 _0672_
*747 _0673_
*748 _0674_
*749 _0675_
*750 _0676_
*751 _0677_
*752 _0678_
*753 _0679_
*754 _0680_
*755 _0681_
*756 _0682_
*757 _0683_
*758 _0684_
*759 _0685_
*760 _0686_
*761 clknet_0_clk
*762 clknet_3_0__leaf_clk
*763 clknet_3_1__leaf_clk
*764 clknet_3_2__leaf_clk
*765 clknet_3_3__leaf_clk
*766 clknet_3_4__leaf_clk
*767 clknet_3_5__leaf_clk
*768 clknet_3_6__leaf_clk
*769 clknet_3_7__leaf_clk
*770 net1
*771 net10
*772 net100
*773 net101
*774 net102
*775 net103
*776 net104
*777 net105
*778 net106
*779 net107
*780 net108
*781 net109
*782 net11
*783 net110
*784 net111
*785 net112
*786 net113
*787 net114
*788 net115
*789 net116
*790 net117
*791 net118
*792 net119
*793 net12
*794 net120
*795 net121
*796 net122
*797 net123
*798 net124
*799 net125
*800 net126
*801 net127
*802 net128
*803 net129
*804 net13
*805 net130
*806 net131
*807 net132
*808 net133
*809 net134
*810 net135
*811 net136
*812 net137
*813 net138
*814 net139
*815 net14
*816 net140
*817 net141
*818 net142
*819 net143
*820 net144
*821 net145
*822 net146
*823 net147
*824 net148
*825 net149
*826 net15
*827 net150
*828 net151
*829 net152
*830 net153
*831 net154
*832 net155
*833 net156
*834 net157
*835 net158
*836 net159
*837 net16
*838 net160
*839 net161
*840 net162
*841 net163
*842 net164
*843 net165
*844 net166
*845 net167
*846 net168
*847 net169
*848 net17
*849 net170
*850 net171
*851 net172
*852 net173
*853 net174
*854 net18
*855 net19
*856 net2
*857 net20
*858 net21
*859 net22
*860 net23
*861 net24
*862 net25
*863 net26
*864 net27
*865 net28
*866 net29
*867 net3
*868 net30
*869 net31
*870 net32
*871 net33
*872 net331
*873 net332
*874 net333
*875 net334
*876 net335
*877 net336
*878 net337
*879 net338
*880 net339
*881 net34
*882 net340
*883 net341
*884 net342
*885 net343
*886 net344
*887 net345
*888 net346
*889 net347
*890 net348
*891 net35
*892 net36
*893 net367
*894 net368
*895 net369
*896 net37
*897 net370
*898 net371
*899 net372
*900 net373
*901 net374
*902 net375
*903 net376
*904 net377
*905 net378
*906 net38
*907 net39
*908 net391
*909 net392
*910 net393
*911 net394
*912 net4
*913 net40
*914 net409
*915 net41
*916 net410
*917 net411
*918 net412
*919 net413
*920 net414
*921 net415
*922 net416
*923 net417
*924 net418
*925 net419
*926 net42
*927 net420
*928 net421
*929 net422
*930 net423
*931 net424
*932 net425
*933 net426
*934 net427
*935 net428
*936 net429
*937 net43
*938 net430
*939 net431
*940 net432
*941 net433
*942 net434
*943 net435
*944 net436
*945 net437
*946 net438
*947 net44
*948 net45
*949 net46
*950 net47
*951 net48
*952 net49
*953 net5
*954 net50
*955 net51
*956 net52
*957 net53
*958 net54
*959 net55
*960 net56
*961 net57
*962 net58
*963 net59
*964 net6
*965 net60
*966 net61
*967 net62
*968 net63
*969 net64
*970 net65
*971 net66
*972 net67
*973 net68
*974 net69
*975 net7
*976 net70
*977 net71
*978 net72
*979 net73
*980 net74
*981 net75
*982 net76
*983 net77
*984 net78
*985 net79
*986 net8
*987 net80
*988 net81
*989 net82
*990 net83
*991 net84
*992 net85
*993 net86
*994 net87
*995 net88
*996 net89
*997 net9
*998 net90
*999 net91
*1000 net92
*1001 net93
*1002 net94
*1003 net95
*1004 net96
*1005 net97
*1006 net98
*1007 net99
*1008 product_reg\[0\]
*1009 product_reg\[10\]
*1010 product_reg\[11\]
*1011 product_reg\[12\]
*1012 product_reg\[13\]
*1013 product_reg\[14\]
*1014 product_reg\[15\]
*1015 product_reg\[1\]
*1016 product_reg\[2\]
*1017 product_reg\[3\]
*1018 product_reg\[4\]
*1019 product_reg\[5\]
*1020 product_reg\[6\]
*1021 product_reg\[7\]
*1022 product_reg\[8\]
*1023 product_reg\[9\]
*1024 v_pipe
*1025 FILLER_0_102
*1026 FILLER_0_113
*1027 FILLER_0_125
*1028 FILLER_0_133
*1029 FILLER_0_141
*1030 FILLER_0_147
*1031 FILLER_0_15
*1032 FILLER_0_155
*1033 FILLER_0_161
*1034 FILLER_0_169
*1035 FILLER_0_175
*1036 FILLER_0_182
*1037 FILLER_0_189
*1038 FILLER_0_195
*1039 FILLER_0_197
*1040 FILLER_0_209
*1041 FILLER_0_221
*1042 FILLER_0_228
*1043 FILLER_0_238
*1044 FILLER_0_245
*1045 FILLER_0_260
*1046 FILLER_0_27
*1047 FILLER_0_272
*1048 FILLER_0_281
*1049 FILLER_0_29
*1050 FILLER_0_293
*1051 FILLER_0_3
*1052 FILLER_0_305
*1053 FILLER_0_309
*1054 FILLER_0_41
*1055 FILLER_0_49
*1056 FILLER_0_57
*1057 FILLER_0_69
*1058 FILLER_0_81
*1059 FILLER_0_85
*1060 FILLER_0_90
*1061 FILLER_10_105
*1062 FILLER_10_127
*1063 FILLER_10_139
*1064 FILLER_10_141
*1065 FILLER_10_15
*1066 FILLER_10_153
*1067 FILLER_10_165
*1068 FILLER_10_173
*1069 FILLER_10_191
*1070 FILLER_10_195
*1071 FILLER_10_197
*1072 FILLER_10_235
*1073 FILLER_10_247
*1074 FILLER_10_261
*1075 FILLER_10_27
*1076 FILLER_10_273
*1077 FILLER_10_286
*1078 FILLER_10_29
*1079 FILLER_10_298
*1080 FILLER_10_3
*1081 FILLER_10_309
*1082 FILLER_10_58
*1083 FILLER_10_85
*1084 FILLER_10_97
*1085 FILLER_11_110
*1086 FILLER_11_126
*1087 FILLER_11_138
*1088 FILLER_11_15
*1089 FILLER_11_150
*1090 FILLER_11_162
*1091 FILLER_11_169
*1092 FILLER_11_173
*1093 FILLER_11_179
*1094 FILLER_11_192
*1095 FILLER_11_220
*1096 FILLER_11_233
*1097 FILLER_11_27
*1098 FILLER_11_3
*1099 FILLER_11_308
*1100 FILLER_11_35
*1101 FILLER_11_63
*1102 FILLER_11_69
*1103 FILLER_12_116
*1104 FILLER_12_128
*1105 FILLER_12_132
*1106 FILLER_12_15
*1107 FILLER_12_151
*1108 FILLER_12_163
*1109 FILLER_12_175
*1110 FILLER_12_197
*1111 FILLER_12_207
*1112 FILLER_12_219
*1113 FILLER_12_231
*1114 FILLER_12_246
*1115 FILLER_12_263
*1116 FILLER_12_27
*1117 FILLER_12_275
*1118 FILLER_12_287
*1119 FILLER_12_29
*1120 FILLER_12_291
*1121 FILLER_12_3
*1122 FILLER_12_309
*1123 FILLER_12_41
*1124 FILLER_12_53
*1125 FILLER_12_81
*1126 FILLER_12_85
*1127 FILLER_12_98
*1128 FILLER_13_106
*1129 FILLER_13_113
*1130 FILLER_13_125
*1131 FILLER_13_15
*1132 FILLER_13_162
*1133 FILLER_13_169
*1134 FILLER_13_177
*1135 FILLER_13_186
*1136 FILLER_13_225
*1137 FILLER_13_237
*1138 FILLER_13_264
*1139 FILLER_13_276
*1140 FILLER_13_281
*1141 FILLER_13_293
*1142 FILLER_13_3
*1143 FILLER_13_304
*1144 FILLER_13_36
*1145 FILLER_13_48
*1146 FILLER_13_57
*1147 FILLER_13_65
*1148 FILLER_13_80
*1149 FILLER_13_94
*1150 FILLER_14_109
*1151 FILLER_14_120
*1152 FILLER_14_132
*1153 FILLER_14_15
*1154 FILLER_14_157
*1155 FILLER_14_169
*1156 FILLER_14_181
*1157 FILLER_14_187
*1158 FILLER_14_195
*1159 FILLER_14_211
*1160 FILLER_14_223
*1161 FILLER_14_235
*1162 FILLER_14_247
*1163 FILLER_14_25
*1164 FILLER_14_263
*1165 FILLER_14_275
*1166 FILLER_14_287
*1167 FILLER_14_29
*1168 FILLER_14_299
*1169 FILLER_14_3
*1170 FILLER_14_303
*1171 FILLER_14_309
*1172 FILLER_14_51
*1173 FILLER_14_63
*1174 FILLER_14_75
*1175 FILLER_14_83
*1176 FILLER_14_85
*1177 FILLER_14_97
*1178 FILLER_15_123
*1179 FILLER_15_131
*1180 FILLER_15_153
*1181 FILLER_15_165
*1182 FILLER_15_174
*1183 FILLER_15_186
*1184 FILLER_15_198
*1185 FILLER_15_20
*1186 FILLER_15_210
*1187 FILLER_15_220
*1188 FILLER_15_225
*1189 FILLER_15_237
*1190 FILLER_15_241
*1191 FILLER_15_268
*1192 FILLER_15_281
*1193 FILLER_15_297
*1194 FILLER_15_3
*1195 FILLER_15_41
*1196 FILLER_15_53
*1197 FILLER_15_71
*1198 FILLER_15_83
*1199 FILLER_15_9
*1200 FILLER_15_91
*1201 FILLER_16_123
*1202 FILLER_16_135
*1203 FILLER_16_139
*1204 FILLER_16_149
*1205 FILLER_16_15
*1206 FILLER_16_157
*1207 FILLER_16_167
*1208 FILLER_16_188
*1209 FILLER_16_197
*1210 FILLER_16_205
*1211 FILLER_16_215
*1212 FILLER_16_227
*1213 FILLER_16_239
*1214 FILLER_16_258
*1215 FILLER_16_276
*1216 FILLER_16_284
*1217 FILLER_16_3
*1218 FILLER_16_302
*1219 FILLER_16_309
*1220 FILLER_16_49
*1221 FILLER_16_85
*1222 FILLER_17_103
*1223 FILLER_17_111
*1224 FILLER_17_123
*1225 FILLER_17_135
*1226 FILLER_17_15
*1227 FILLER_17_152
*1228 FILLER_17_164
*1229 FILLER_17_225
*1230 FILLER_17_266
*1231 FILLER_17_27
*1232 FILLER_17_274
*1233 FILLER_17_281
*1234 FILLER_17_3
*1235 FILLER_17_308
*1236 FILLER_17_41
*1237 FILLER_18_103
*1238 FILLER_18_113
*1239 FILLER_18_125
*1240 FILLER_18_137
*1241 FILLER_18_141
*1242 FILLER_18_15
*1243 FILLER_18_165
*1244 FILLER_18_170
*1245 FILLER_18_178
*1246 FILLER_18_187
*1247 FILLER_18_195
*1248 FILLER_18_197
*1249 FILLER_18_209
*1250 FILLER_18_21
*1251 FILLER_18_221
*1252 FILLER_18_237
*1253 FILLER_18_249
*1254 FILLER_18_269
*1255 FILLER_18_27
*1256 FILLER_18_29
*1257 FILLER_18_3
*1258 FILLER_18_305
*1259 FILLER_18_309
*1260 FILLER_18_44
*1261 FILLER_18_52
*1262 FILLER_18_60
*1263 FILLER_18_91
*1264 FILLER_19_108
*1265 FILLER_19_113
*1266 FILLER_19_133
*1267 FILLER_19_140
*1268 FILLER_19_152
*1269 FILLER_19_164
*1270 FILLER_19_169
*1271 FILLER_19_181
*1272 FILLER_19_193
*1273 FILLER_19_205
*1274 FILLER_19_217
*1275 FILLER_19_223
*1276 FILLER_19_225
*1277 FILLER_19_233
*1278 FILLER_19_259
*1279 FILLER_19_271
*1280 FILLER_19_279
*1281 FILLER_19_281
*1282 FILLER_19_3
*1283 FILLER_19_300
*1284 FILLER_19_46
*1285 FILLER_19_54
*1286 FILLER_19_57
*1287 FILLER_19_63
*1288 FILLER_19_74
*1289 FILLER_19_9
*1290 FILLER_19_96
*1291 FILLER_1_105
*1292 FILLER_1_111
*1293 FILLER_1_113
*1294 FILLER_1_131
*1295 FILLER_1_143
*1296 FILLER_1_149
*1297 FILLER_1_15
*1298 FILLER_1_166
*1299 FILLER_1_169
*1300 FILLER_1_189
*1301 FILLER_1_197
*1302 FILLER_1_214
*1303 FILLER_1_235
*1304 FILLER_1_239
*1305 FILLER_1_257
*1306 FILLER_1_27
*1307 FILLER_1_274
*1308 FILLER_1_281
*1309 FILLER_1_293
*1310 FILLER_1_3
*1311 FILLER_1_305
*1312 FILLER_1_39
*1313 FILLER_1_51
*1314 FILLER_1_55
*1315 FILLER_1_57
*1316 FILLER_1_69
*1317 FILLER_1_81
*1318 FILLER_1_93
*1319 FILLER_20_105
*1320 FILLER_20_117
*1321 FILLER_20_125
*1322 FILLER_20_148
*1323 FILLER_20_160
*1324 FILLER_20_172
*1325 FILLER_20_181
*1326 FILLER_20_193
*1327 FILLER_20_197
*1328 FILLER_20_205
*1329 FILLER_20_224
*1330 FILLER_20_251
*1331 FILLER_20_253
*1332 FILLER_20_265
*1333 FILLER_20_277
*1334 FILLER_20_286
*1335 FILLER_20_292
*1336 FILLER_20_3
*1337 FILLER_20_303
*1338 FILLER_20_309
*1339 FILLER_20_45
*1340 FILLER_20_57
*1341 FILLER_20_78
*1342 FILLER_20_93
*1343 FILLER_21_100
*1344 FILLER_21_134
*1345 FILLER_21_142
*1346 FILLER_21_150
*1347 FILLER_21_163
*1348 FILLER_21_167
*1349 FILLER_21_169
*1350 FILLER_21_181
*1351 FILLER_21_193
*1352 FILLER_21_201
*1353 FILLER_21_211
*1354 FILLER_21_223
*1355 FILLER_21_225
*1356 FILLER_21_237
*1357 FILLER_21_246
*1358 FILLER_21_250
*1359 FILLER_21_262
*1360 FILLER_21_274
*1361 FILLER_21_3
*1362 FILLER_21_305
*1363 FILLER_21_46
*1364 FILLER_21_54
*1365 FILLER_21_57
*1366 FILLER_21_65
*1367 FILLER_22_102
*1368 FILLER_22_108
*1369 FILLER_22_136
*1370 FILLER_22_186
*1371 FILLER_22_192
*1372 FILLER_22_205
*1373 FILLER_22_209
*1374 FILLER_22_226
*1375 FILLER_22_259
*1376 FILLER_22_26
*1377 FILLER_22_271
*1378 FILLER_22_277
*1379 FILLER_22_283
*1380 FILLER_22_309
*1381 FILLER_22_46
*1382 FILLER_22_52
*1383 FILLER_23_110
*1384 FILLER_23_140
*1385 FILLER_23_15
*1386 FILLER_23_164
*1387 FILLER_23_174
*1388 FILLER_23_182
*1389 FILLER_23_206
*1390 FILLER_23_218
*1391 FILLER_23_225
*1392 FILLER_23_233
*1393 FILLER_23_269
*1394 FILLER_23_277
*1395 FILLER_23_307
*1396 FILLER_23_40
*1397 FILLER_23_52
*1398 FILLER_23_78
*1399 FILLER_23_91
*1400 FILLER_23_99
*1401 FILLER_24_118
*1402 FILLER_24_126
*1403 FILLER_24_141
*1404 FILLER_24_165
*1405 FILLER_24_177
*1406 FILLER_24_195
*1407 FILLER_24_197
*1408 FILLER_24_208
*1409 FILLER_24_226
*1410 FILLER_24_238
*1411 FILLER_24_251
*1412 FILLER_24_253
*1413 FILLER_24_26
*1414 FILLER_24_265
*1415 FILLER_24_277
*1416 FILLER_24_285
*1417 FILLER_24_29
*1418 FILLER_24_303
*1419 FILLER_24_309
*1420 FILLER_24_41
*1421 FILLER_24_53
*1422 FILLER_24_65
*1423 FILLER_24_77
*1424 FILLER_24_83
*1425 FILLER_24_91
*1426 FILLER_24_95
*1427 FILLER_25_100
*1428 FILLER_25_134
*1429 FILLER_25_142
*1430 FILLER_25_165
*1431 FILLER_25_169
*1432 FILLER_25_173
*1433 FILLER_25_178
*1434 FILLER_25_190
*1435 FILLER_25_205
*1436 FILLER_25_213
*1437 FILLER_25_221
*1438 FILLER_25_233
*1439 FILLER_25_239
*1440 FILLER_25_25
*1441 FILLER_25_261
*1442 FILLER_25_273
*1443 FILLER_25_279
*1444 FILLER_25_281
*1445 FILLER_25_299
*1446 FILLER_25_3
*1447 FILLER_25_308
*1448 FILLER_25_37
*1449 FILLER_25_55
*1450 FILLER_25_64
*1451 FILLER_25_76
*1452 FILLER_25_88
*1453 FILLER_25_9
*1454 FILLER_26_109
*1455 FILLER_26_116
*1456 FILLER_26_128
*1457 FILLER_26_141
*1458 FILLER_26_164
*1459 FILLER_26_17
*1460 FILLER_26_175
*1461 FILLER_26_194
*1462 FILLER_26_217
*1463 FILLER_26_229
*1464 FILLER_26_248
*1465 FILLER_26_25
*1466 FILLER_26_267
*1467 FILLER_26_279
*1468 FILLER_26_285
*1469 FILLER_26_293
*1470 FILLER_26_3
*1471 FILLER_26_309
*1472 FILLER_26_34
*1473 FILLER_26_42
*1474 FILLER_26_73
*1475 FILLER_26_81
*1476 FILLER_26_85
*1477 FILLER_26_9
*1478 FILLER_26_97
*1479 FILLER_27_100
*1480 FILLER_27_127
*1481 FILLER_27_139
*1482 FILLER_27_151
*1483 FILLER_27_163
*1484 FILLER_27_167
*1485 FILLER_27_193
*1486 FILLER_27_205
*1487 FILLER_27_217
*1488 FILLER_27_223
*1489 FILLER_27_225
*1490 FILLER_27_237
*1491 FILLER_27_241
*1492 FILLER_27_275
*1493 FILLER_27_279
*1494 FILLER_27_281
*1495 FILLER_27_298
*1496 FILLER_27_3
*1497 FILLER_27_54
*1498 FILLER_27_83
*1499 FILLER_27_91
*1500 FILLER_28_107
*1501 FILLER_28_125
*1502 FILLER_28_137
*1503 FILLER_28_144
*1504 FILLER_28_156
*1505 FILLER_28_162
*1506 FILLER_28_186
*1507 FILLER_28_194
*1508 FILLER_28_197
*1509 FILLER_28_209
*1510 FILLER_28_221
*1511 FILLER_28_229
*1512 FILLER_28_248
*1513 FILLER_28_253
*1514 FILLER_28_259
*1515 FILLER_28_26
*1516 FILLER_28_271
*1517 FILLER_28_279
*1518 FILLER_28_3
*1519 FILLER_28_309
*1520 FILLER_28_45
*1521 FILLER_28_49
*1522 FILLER_28_85
*1523 FILLER_28_91
*1524 FILLER_29_123
*1525 FILLER_29_150
*1526 FILLER_29_162
*1527 FILLER_29_186
*1528 FILLER_29_203
*1529 FILLER_29_207
*1530 FILLER_29_225
*1531 FILLER_29_23
*1532 FILLER_29_258
*1533 FILLER_29_270
*1534 FILLER_29_281
*1535 FILLER_29_3
*1536 FILLER_29_310
*1537 FILLER_29_44
*1538 FILLER_29_57
*1539 FILLER_29_63
*1540 FILLER_29_75
*1541 FILLER_29_87
*1542 FILLER_2_137
*1543 FILLER_2_141
*1544 FILLER_2_15
*1545 FILLER_2_153
*1546 FILLER_2_186
*1547 FILLER_2_194
*1548 FILLER_2_197
*1549 FILLER_2_264
*1550 FILLER_2_27
*1551 FILLER_2_281
*1552 FILLER_2_289
*1553 FILLER_2_29
*1554 FILLER_2_3
*1555 FILLER_2_309
*1556 FILLER_2_41
*1557 FILLER_2_53
*1558 FILLER_2_65
*1559 FILLER_2_77
*1560 FILLER_2_83
*1561 FILLER_2_85
*1562 FILLER_30_139
*1563 FILLER_30_166
*1564 FILLER_30_178
*1565 FILLER_30_193
*1566 FILLER_30_197
*1567 FILLER_30_207
*1568 FILLER_30_214
*1569 FILLER_30_223
*1570 FILLER_30_235
*1571 FILLER_30_253
*1572 FILLER_30_27
*1573 FILLER_30_273
*1574 FILLER_30_279
*1575 FILLER_30_296
*1576 FILLER_30_3
*1577 FILLER_30_309
*1578 FILLER_30_35
*1579 FILLER_30_50
*1580 FILLER_30_60
*1581 FILLER_30_72
*1582 FILLER_30_85
*1583 FILLER_30_93
*1584 FILLER_31_108
*1585 FILLER_31_113
*1586 FILLER_31_126
*1587 FILLER_31_157
*1588 FILLER_31_165
*1589 FILLER_31_169
*1590 FILLER_31_17
*1591 FILLER_31_181
*1592 FILLER_31_189
*1593 FILLER_31_204
*1594 FILLER_31_221
*1595 FILLER_31_225
*1596 FILLER_31_237
*1597 FILLER_31_264
*1598 FILLER_31_276
*1599 FILLER_31_281
*1600 FILLER_31_29
*1601 FILLER_31_293
*1602 FILLER_31_3
*1603 FILLER_31_305
*1604 FILLER_31_33
*1605 FILLER_31_45
*1606 FILLER_31_53
*1607 FILLER_31_70
*1608 FILLER_31_82
*1609 FILLER_31_94
*1610 FILLER_32_124
*1611 FILLER_32_136
*1612 FILLER_32_15
*1613 FILLER_32_153
*1614 FILLER_32_170
*1615 FILLER_32_175
*1616 FILLER_32_179
*1617 FILLER_32_185
*1618 FILLER_32_191
*1619 FILLER_32_195
*1620 FILLER_32_197
*1621 FILLER_32_209
*1622 FILLER_32_221
*1623 FILLER_32_233
*1624 FILLER_32_241
*1625 FILLER_32_251
*1626 FILLER_32_253
*1627 FILLER_32_265
*1628 FILLER_32_273
*1629 FILLER_32_281
*1630 FILLER_32_292
*1631 FILLER_32_3
*1632 FILLER_32_304
*1633 FILLER_32_309
*1634 FILLER_32_39
*1635 FILLER_32_45
*1636 FILLER_32_80
*1637 FILLER_32_85
*1638 FILLER_32_97
*1639 FILLER_33_102
*1640 FILLER_33_106
*1641 FILLER_33_11
*1642 FILLER_33_111
*1643 FILLER_33_113
*1644 FILLER_33_125
*1645 FILLER_33_137
*1646 FILLER_33_149
*1647 FILLER_33_161
*1648 FILLER_33_169
*1649 FILLER_33_182
*1650 FILLER_33_194
*1651 FILLER_33_202
*1652 FILLER_33_208
*1653 FILLER_33_220
*1654 FILLER_33_225
*1655 FILLER_33_237
*1656 FILLER_33_256
*1657 FILLER_33_268
*1658 FILLER_33_272
*1659 FILLER_33_3
*1660 FILLER_33_302
*1661 FILLER_33_48
*1662 FILLER_33_78
*1663 FILLER_33_90
*1664 FILLER_34_109
*1665 FILLER_34_121
*1666 FILLER_34_133
*1667 FILLER_34_139
*1668 FILLER_34_141
*1669 FILLER_34_153
*1670 FILLER_34_165
*1671 FILLER_34_173
*1672 FILLER_34_181
*1673 FILLER_34_193
*1674 FILLER_34_197
*1675 FILLER_34_209
*1676 FILLER_34_221
*1677 FILLER_34_233
*1678 FILLER_34_26
*1679 FILLER_34_290
*1680 FILLER_34_3
*1681 FILLER_34_309
*1682 FILLER_34_43
*1683 FILLER_34_51
*1684 FILLER_34_66
*1685 FILLER_34_85
*1686 FILLER_34_96
*1687 FILLER_35_108
*1688 FILLER_35_124
*1689 FILLER_35_131
*1690 FILLER_35_139
*1691 FILLER_35_146
*1692 FILLER_35_15
*1693 FILLER_35_161
*1694 FILLER_35_173
*1695 FILLER_35_185
*1696 FILLER_35_197
*1697 FILLER_35_207
*1698 FILLER_35_225
*1699 FILLER_35_231
*1700 FILLER_35_255
*1701 FILLER_35_267
*1702 FILLER_35_279
*1703 FILLER_35_281
*1704 FILLER_35_3
*1705 FILLER_35_309
*1706 FILLER_35_42
*1707 FILLER_35_57
*1708 FILLER_35_61
*1709 FILLER_36_102
*1710 FILLER_36_116
*1711 FILLER_36_152
*1712 FILLER_36_164
*1713 FILLER_36_176
*1714 FILLER_36_188
*1715 FILLER_36_197
*1716 FILLER_36_209
*1717 FILLER_36_213
*1718 FILLER_36_251
*1719 FILLER_36_261
*1720 FILLER_36_273
*1721 FILLER_36_3
*1722 FILLER_36_309
*1723 FILLER_36_48
*1724 FILLER_36_79
*1725 FILLER_36_83
*1726 FILLER_36_9
*1727 FILLER_37_104
*1728 FILLER_37_124
*1729 FILLER_37_136
*1730 FILLER_37_148
*1731 FILLER_37_160
*1732 FILLER_37_169
*1733 FILLER_37_177
*1734 FILLER_37_190
*1735 FILLER_37_194
*1736 FILLER_37_206
*1737 FILLER_37_214
*1738 FILLER_37_219
*1739 FILLER_37_225
*1740 FILLER_37_232
*1741 FILLER_37_274
*1742 FILLER_37_281
*1743 FILLER_37_287
*1744 FILLER_37_297
*1745 FILLER_37_310
*1746 FILLER_37_41
*1747 FILLER_37_53
*1748 FILLER_37_57
*1749 FILLER_37_9
*1750 FILLER_37_90
*1751 FILLER_38_105
*1752 FILLER_38_117
*1753 FILLER_38_129
*1754 FILLER_38_137
*1755 FILLER_38_141
*1756 FILLER_38_153
*1757 FILLER_38_165
*1758 FILLER_38_177
*1759 FILLER_38_195
*1760 FILLER_38_202
*1761 FILLER_38_208
*1762 FILLER_38_233
*1763 FILLER_38_248
*1764 FILLER_38_253
*1765 FILLER_38_259
*1766 FILLER_38_276
*1767 FILLER_38_288
*1768 FILLER_38_3
*1769 FILLER_38_300
*1770 FILLER_38_309
*1771 FILLER_38_42
*1772 FILLER_38_66
*1773 FILLER_38_95
*1774 FILLER_38_99
*1775 FILLER_39_100
*1776 FILLER_39_113
*1777 FILLER_39_125
*1778 FILLER_39_137
*1779 FILLER_39_149
*1780 FILLER_39_15
*1781 FILLER_39_163
*1782 FILLER_39_167
*1783 FILLER_39_169
*1784 FILLER_39_181
*1785 FILLER_39_187
*1786 FILLER_39_211
*1787 FILLER_39_215
*1788 FILLER_39_222
*1789 FILLER_39_250
*1790 FILLER_39_254
*1791 FILLER_39_263
*1792 FILLER_39_275
*1793 FILLER_39_279
*1794 FILLER_39_281
*1795 FILLER_39_293
*1796 FILLER_39_305
*1797 FILLER_39_62
*1798 FILLER_39_66
*1799 FILLER_39_88
*1800 FILLER_3_105
*1801 FILLER_3_113
*1802 FILLER_3_124
*1803 FILLER_3_132
*1804 FILLER_3_15
*1805 FILLER_3_159
*1806 FILLER_3_167
*1807 FILLER_3_177
*1808 FILLER_3_189
*1809 FILLER_3_208
*1810 FILLER_3_27
*1811 FILLER_3_278
*1812 FILLER_3_285
*1813 FILLER_3_298
*1814 FILLER_3_3
*1815 FILLER_3_308
*1816 FILLER_3_39
*1817 FILLER_3_51
*1818 FILLER_3_55
*1819 FILLER_3_57
*1820 FILLER_3_69
*1821 FILLER_3_81
*1822 FILLER_3_93
*1823 FILLER_3_97
*1824 FILLER_40_109
*1825 FILLER_40_128
*1826 FILLER_40_141
*1827 FILLER_40_153
*1828 FILLER_40_170
*1829 FILLER_40_178
*1830 FILLER_40_186
*1831 FILLER_40_194
*1832 FILLER_40_224
*1833 FILLER_40_236
*1834 FILLER_40_248
*1835 FILLER_40_253
*1836 FILLER_40_26
*1837 FILLER_40_265
*1838 FILLER_40_277
*1839 FILLER_40_281
*1840 FILLER_40_309
*1841 FILLER_40_39
*1842 FILLER_40_59
*1843 FILLER_40_76
*1844 FILLER_40_85
*1845 FILLER_40_97
*1846 FILLER_41_109
*1847 FILLER_41_113
*1848 FILLER_41_117
*1849 FILLER_41_135
*1850 FILLER_41_159
*1851 FILLER_41_167
*1852 FILLER_41_169
*1853 FILLER_41_177
*1854 FILLER_41_18
*1855 FILLER_41_194
*1856 FILLER_41_206
*1857 FILLER_41_219
*1858 FILLER_41_223
*1859 FILLER_41_225
*1860 FILLER_41_237
*1861 FILLER_41_249
*1862 FILLER_41_261
*1863 FILLER_41_273
*1864 FILLER_41_281
*1865 FILLER_41_308
*1866 FILLER_41_48
*1867 FILLER_41_71
*1868 FILLER_41_83
*1869 FILLER_41_95
*1870 FILLER_42_101
*1871 FILLER_42_119
*1872 FILLER_42_124
*1873 FILLER_42_136
*1874 FILLER_42_165
*1875 FILLER_42_177
*1876 FILLER_42_185
*1877 FILLER_42_195
*1878 FILLER_42_203
*1879 FILLER_42_209
*1880 FILLER_42_230
*1881 FILLER_42_25
*1882 FILLER_42_261
*1883 FILLER_42_273
*1884 FILLER_42_279
*1885 FILLER_42_29
*1886 FILLER_42_3
*1887 FILLER_42_309
*1888 FILLER_42_74
*1889 FILLER_42_78
*1890 FILLER_43_107
*1891 FILLER_43_111
*1892 FILLER_43_113
*1893 FILLER_43_133
*1894 FILLER_43_141
*1895 FILLER_43_148
*1896 FILLER_43_165
*1897 FILLER_43_173
*1898 FILLER_43_185
*1899 FILLER_43_197
*1900 FILLER_43_209
*1901 FILLER_43_221
*1902 FILLER_43_225
*1903 FILLER_43_233
*1904 FILLER_43_26