* NGSPICE file created from PE.ext - technology: sky130A

* Black-box entry subcircuit for sky130_fd_sc_hd__fill_2 abstract view
.subckt sky130_fd_sc_hd__fill_2 VGND VNB VPB VPWR
.ends

* Black-box entry subcircuit for sky130_fd_sc_hd__tapvpwrvgnd_1 abstract view
.subckt sky130_fd_sc_hd__tapvpwrvgnd_1 VGND VPWR
.ends

* Black-box entry subcircuit for sky130_ef_sc_hd__decap_12 abstract view
.subckt sky130_ef_sc_hd__decap_12 VPWR VGND VPB VNB
.ends

* Black-box entry subcircuit for sky130_fd_sc_hd__decap_4 abstract view
.subckt sky130_fd_sc_hd__decap_4 VGND VNB VPB VPWR
.ends

* Black-box entry subcircuit for sky130_fd_sc_hd__clkbuf_1 abstract view
.subckt sky130_fd_sc_hd__clkbuf_1 A VGND VNB VPB VPWR X
.ends

* Black-box entry subcircuit for sky130_fd_sc_hd__o21ai_1 abstract view
.subckt sky130_fd_sc_hd__o21ai_1 A1 A2 B1 VGND VNB VPB VPWR Y
.ends

* Black-box entry subcircuit for sky130_fd_sc_hd__o2bb2ai_2 abstract view
.subckt sky130_fd_sc_hd__o2bb2ai_2 A1_N A2_N B1 B2 VGND VNB VPB VPWR Y
.ends

* Black-box entry subcircuit for sky130_fd_sc_hd__buf_4 abstract view
.subckt sky130_fd_sc_hd__buf_4 A VGND VNB VPB VPWR X
.ends

* Black-box entry subcircuit for sky130_fd_sc_hd__dfxtp_1 abstract view
.subckt sky130_fd_sc_hd__dfxtp_1 CLK D VGND VNB VPB VPWR Q
.ends

* Black-box entry subcircuit for sky130_fd_sc_hd__clkbuf_4 abstract view
.subckt sky130_fd_sc_hd__clkbuf_4 A VGND VNB VPB VPWR X
.ends

* Black-box entry subcircuit for sky130_fd_sc_hd__decap_3 abstract view
.subckt sky130_fd_sc_hd__decap_3 VGND VNB VPB VPWR
.ends

* Black-box entry subcircuit for sky130_fd_sc_hd__decap_8 abstract view
.subckt sky130_fd_sc_hd__decap_8 VGND VNB VPB VPWR
.ends

* Black-box entry subcircuit for sky130_fd_sc_hd__dlygate4sd3_1 abstract view
.subckt sky130_fd_sc_hd__dlygate4sd3_1 A VGND VNB VPB VPWR X
.ends

* Black-box entry subcircuit for sky130_fd_sc_hd__nand2_1 abstract view
.subckt sky130_fd_sc_hd__nand2_1 A B VGND VNB VPB VPWR Y
.ends

* Black-box entry subcircuit for sky130_fd_sc_hd__and3_1 abstract view
.subckt sky130_fd_sc_hd__and3_1 A B C VGND VNB VPB VPWR X
.ends

* Black-box entry subcircuit for sky130_fd_sc_hd__a211oi_2 abstract view
.subckt sky130_fd_sc_hd__a211oi_2 A1 A2 B1 C1 VGND VNB VPB VPWR Y
.ends

* Black-box entry subcircuit for sky130_fd_sc_hd__a22oi_4 abstract view
.subckt sky130_fd_sc_hd__a22oi_4 A1 A2 B1 B2 VGND VNB VPB VPWR Y
.ends

* Black-box entry subcircuit for sky130_fd_sc_hd__a22o_1 abstract view
.subckt sky130_fd_sc_hd__a22o_1 A1 A2 B1 B2 VGND VNB VPB VPWR X
.ends

* Black-box entry subcircuit for sky130_fd_sc_hd__a21o_1 abstract view
.subckt sky130_fd_sc_hd__a21o_1 A1 A2 B1 VGND VNB VPB VPWR X
.ends

* Black-box entry subcircuit for sky130_fd_sc_hd__and2_1 abstract view
.subckt sky130_fd_sc_hd__and2_1 A B VGND VNB VPB VPWR X
.ends

* Black-box entry subcircuit for sky130_fd_sc_hd__a21oi_1 abstract view
.subckt sky130_fd_sc_hd__a21oi_1 A1 A2 B1 VGND VNB VPB VPWR Y
.ends

* Black-box entry subcircuit for sky130_fd_sc_hd__o211ai_2 abstract view
.subckt sky130_fd_sc_hd__o211ai_2 A1 A2 B1 C1 VGND VNB VPB VPWR Y
.ends

* Black-box entry subcircuit for sky130_fd_sc_hd__o211ai_4 abstract view
.subckt sky130_fd_sc_hd__o211ai_4 A1 A2 B1 C1 VGND VNB VPB VPWR Y
.ends

* Black-box entry subcircuit for sky130_fd_sc_hd__fill_1 abstract view
.subckt sky130_fd_sc_hd__fill_1 VGND VNB VPB VPWR
.ends

* Black-box entry subcircuit for sky130_fd_sc_hd__a21oi_4 abstract view
.subckt sky130_fd_sc_hd__a21oi_4 A1 A2 B1 VGND VNB VPB VPWR Y
.ends

* Black-box entry subcircuit for sky130_fd_sc_hd__o21bai_2 abstract view
.subckt sky130_fd_sc_hd__o21bai_2 A1 A2 B1_N VGND VNB VPB VPWR Y
.ends

* Black-box entry subcircuit for sky130_fd_sc_hd__buf_6 abstract view
.subckt sky130_fd_sc_hd__buf_6 A VGND VNB VPB VPWR X
.ends

* Black-box entry subcircuit for sky130_fd_sc_hd__dlygate4sd1_1 abstract view
.subckt sky130_fd_sc_hd__dlygate4sd1_1 A VGND VNB VPB VPWR X
.ends

* Black-box entry subcircuit for sky130_fd_sc_hd__dlymetal6s2s_1 abstract view
.subckt sky130_fd_sc_hd__dlymetal6s2s_1 A VGND VNB VPB VPWR X
.ends

* Black-box entry subcircuit for sky130_fd_sc_hd__decap_6 abstract view
.subckt sky130_fd_sc_hd__decap_6 VGND VNB VPB VPWR
.ends

* Black-box entry subcircuit for sky130_fd_sc_hd__a41o_1 abstract view
.subckt sky130_fd_sc_hd__a41o_1 A1 A2 A3 A4 B1 VGND VNB VPB VPWR X
.ends

* Black-box entry subcircuit for sky130_fd_sc_hd__buf_2 abstract view
.subckt sky130_fd_sc_hd__buf_2 A VGND VNB VPB VPWR X
.ends

* Black-box entry subcircuit for sky130_fd_sc_hd__clkbuf_16 abstract view
.subckt sky130_fd_sc_hd__clkbuf_16 A VGND VNB VPB VPWR X
.ends

* Black-box entry subcircuit for sky130_fd_sc_hd__clkbuf_2 abstract view
.subckt sky130_fd_sc_hd__clkbuf_2 A VGND VNB VPB VPWR X
.ends

* Black-box entry subcircuit for sky130_fd_sc_hd__nand3_2 abstract view
.subckt sky130_fd_sc_hd__nand3_2 A B C VGND VNB VPB VPWR Y
.ends

* Black-box entry subcircuit for sky130_fd_sc_hd__buf_12 abstract view
.subckt sky130_fd_sc_hd__buf_12 A VGND VNB VPB VPWR X
.ends

* Black-box entry subcircuit for sky130_fd_sc_hd__nand4_4 abstract view
.subckt sky130_fd_sc_hd__nand4_4 A B C D VGND VNB VPB VPWR Y
.ends

* Black-box entry subcircuit for sky130_fd_sc_hd__o21ai_2 abstract view
.subckt sky130_fd_sc_hd__o21ai_2 A1 A2 B1 VGND VNB VPB VPWR Y
.ends

* Black-box entry subcircuit for sky130_fd_sc_hd__nand4_1 abstract view
.subckt sky130_fd_sc_hd__nand4_1 A B C D VGND VNB VPB VPWR Y
.ends

* Black-box entry subcircuit for sky130_fd_sc_hd__or2_1 abstract view
.subckt sky130_fd_sc_hd__or2_1 A B VGND VNB VPB VPWR X
.ends

* Black-box entry subcircuit for sky130_fd_sc_hd__o21a_1 abstract view
.subckt sky130_fd_sc_hd__o21a_1 A1 A2 B1 VGND VNB VPB VPWR X
.ends

* Black-box entry subcircuit for sky130_fd_sc_hd__a21o_4 abstract view
.subckt sky130_fd_sc_hd__a21o_4 A1 A2 B1 VGND VNB VPB VPWR X
.ends

* Black-box entry subcircuit for sky130_fd_sc_hd__o2111ai_4 abstract view
.subckt sky130_fd_sc_hd__o2111ai_4 A1 A2 B1 C1 D1 VGND VNB VPB VPWR Y
.ends

* Black-box entry subcircuit for sky130_fd_sc_hd__o211a_1 abstract view
.subckt sky130_fd_sc_hd__o211a_1 A1 A2 B1 C1 VGND VNB VPB VPWR X
.ends

* Black-box entry subcircuit for sky130_fd_sc_hd__a21oi_2 abstract view
.subckt sky130_fd_sc_hd__a21oi_2 A1 A2 B1 VGND VNB VPB VPWR Y
.ends

* Black-box entry subcircuit for sky130_fd_sc_hd__nor2_1 abstract view
.subckt sky130_fd_sc_hd__nor2_1 A B VGND VNB VPB VPWR Y
.ends

* Black-box entry subcircuit for sky130_fd_sc_hd__a22o_2 abstract view
.subckt sky130_fd_sc_hd__a22o_2 A1 A2 B1 B2 VGND VNB VPB VPWR X
.ends

* Black-box entry subcircuit for sky130_fd_sc_hd__o22a_1 abstract view
.subckt sky130_fd_sc_hd__o22a_1 A1 A2 B1 B2 VGND VNB VPB VPWR X
.ends

* Black-box entry subcircuit for sky130_fd_sc_hd__a211o_1 abstract view
.subckt sky130_fd_sc_hd__a211o_1 A1 A2 B1 C1 VGND VNB VPB VPWR X
.ends

* Black-box entry subcircuit for sky130_fd_sc_hd__nor2_2 abstract view
.subckt sky130_fd_sc_hd__nor2_2 A B VGND VNB VPB VPWR Y
.ends

* Black-box entry subcircuit for sky130_fd_sc_hd__o21ai_4 abstract view
.subckt sky130_fd_sc_hd__o21ai_4 A1 A2 B1 VGND VNB VPB VPWR Y
.ends

* Black-box entry subcircuit for sky130_fd_sc_hd__a22oi_2 abstract view
.subckt sky130_fd_sc_hd__a22oi_2 A1 A2 B1 B2 VGND VNB VPB VPWR Y
.ends

* Black-box entry subcircuit for sky130_fd_sc_hd__buf_8 abstract view
.subckt sky130_fd_sc_hd__buf_8 A VGND VNB VPB VPWR X
.ends

* Black-box entry subcircuit for sky130_fd_sc_hd__a2111oi_1 abstract view
.subckt sky130_fd_sc_hd__a2111oi_1 A1 A2 B1 C1 D1 VGND VNB VPB VPWR Y
.ends

* Black-box entry subcircuit for sky130_fd_sc_hd__o221ai_4 abstract view
.subckt sky130_fd_sc_hd__o221ai_4 A1 A2 B1 B2 C1 VGND VNB VPB VPWR Y
.ends

* Black-box entry subcircuit for sky130_fd_sc_hd__o211ai_1 abstract view
.subckt sky130_fd_sc_hd__o211ai_1 A1 A2 B1 C1 VGND VNB VPB VPWR Y
.ends

* Black-box entry subcircuit for sky130_fd_sc_hd__nand3_1 abstract view
.subckt sky130_fd_sc_hd__nand3_1 A B C VGND VNB VPB VPWR Y
.ends

* Black-box entry subcircuit for sky130_fd_sc_hd__nand4_2 abstract view
.subckt sky130_fd_sc_hd__nand4_2 A B C D VGND VNB VPB VPWR Y
.ends

* Black-box entry subcircuit for sky130_fd_sc_hd__and4_1 abstract view
.subckt sky130_fd_sc_hd__and4_1 A B C D VGND VNB VPB VPWR X
.ends

* Black-box entry subcircuit for sky130_fd_sc_hd__nand2_2 abstract view
.subckt sky130_fd_sc_hd__nand2_2 A B VGND VNB VPB VPWR Y
.ends

* Black-box entry subcircuit for sky130_fd_sc_hd__o22ai_2 abstract view
.subckt sky130_fd_sc_hd__o22ai_2 A1 A2 B1 B2 VGND VNB VPB VPWR Y
.ends

* Black-box entry subcircuit for sky130_fd_sc_hd__clkbuf_8 abstract view
.subckt sky130_fd_sc_hd__clkbuf_8 A VGND VNB VPB VPWR X
.ends

* Black-box entry subcircuit for sky130_fd_sc_hd__nand3_4 abstract view
.subckt sky130_fd_sc_hd__nand3_4 A B C VGND VNB VPB VPWR Y
.ends

* Black-box entry subcircuit for sky130_fd_sc_hd__a22oi_1 abstract view
.subckt sky130_fd_sc_hd__a22oi_1 A1 A2 B1 B2 VGND VNB VPB VPWR Y
.ends

* Black-box entry subcircuit for sky130_fd_sc_hd__nand2_4 abstract view
.subckt sky130_fd_sc_hd__nand2_4 A B VGND VNB VPB VPWR Y
.ends

* Black-box entry subcircuit for sky130_fd_sc_hd__nand2b_1 abstract view
.subckt sky130_fd_sc_hd__nand2b_1 A_N B VGND VNB VPB VPWR Y
.ends

* Black-box entry subcircuit for sky130_fd_sc_hd__a22o_4 abstract view
.subckt sky130_fd_sc_hd__a22o_4 A1 A2 B1 B2 VGND VNB VPB VPWR X
.ends

* Black-box entry subcircuit for sky130_fd_sc_hd__clkinvlp_4 abstract view
.subckt sky130_fd_sc_hd__clkinvlp_4 A VGND VNB VPB VPWR Y
.ends

* Black-box entry subcircuit for sky130_fd_sc_hd__o22ai_4 abstract view
.subckt sky130_fd_sc_hd__o22ai_4 A1 A2 B1 B2 VGND VNB VPB VPWR Y
.ends

* Black-box entry subcircuit for sky130_fd_sc_hd__dfxtp_4 abstract view
.subckt sky130_fd_sc_hd__dfxtp_4 CLK D VGND VNB VPB VPWR Q
.ends

* Black-box entry subcircuit for sky130_fd_sc_hd__o2bb2ai_1 abstract view
.subckt sky130_fd_sc_hd__o2bb2ai_1 A1_N A2_N B1 B2 VGND VNB VPB VPWR Y
.ends

* Black-box entry subcircuit for sky130_fd_sc_hd__o2111a_1 abstract view
.subckt sky130_fd_sc_hd__o2111a_1 A1 A2 B1 C1 D1 VGND VNB VPB VPWR X
.ends

* Black-box entry subcircuit for sky130_fd_sc_hd__clkinv_4 abstract view
.subckt sky130_fd_sc_hd__clkinv_4 A VGND VNB VPB VPWR Y
.ends

* Black-box entry subcircuit for sky130_fd_sc_hd__a2bb2oi_2 abstract view
.subckt sky130_fd_sc_hd__a2bb2oi_2 A1_N A2_N B1 B2 VGND VNB VPB VPWR Y
.ends

* Black-box entry subcircuit for sky130_fd_sc_hd__o211a_4 abstract view
.subckt sky130_fd_sc_hd__o211a_4 A1 A2 B1 C1 VGND VNB VPB VPWR X
.ends

* Black-box entry subcircuit for sky130_fd_sc_hd__a31o_1 abstract view
.subckt sky130_fd_sc_hd__a31o_1 A1 A2 A3 B1 VGND VNB VPB VPWR X
.ends

* Black-box entry subcircuit for sky130_fd_sc_hd__o2bb2a_2 abstract view
.subckt sky130_fd_sc_hd__o2bb2a_2 A1_N A2_N B1 B2 VGND VNB VPB VPWR X
.ends

* Black-box entry subcircuit for sky130_fd_sc_hd__dfxtp_2 abstract view
.subckt sky130_fd_sc_hd__dfxtp_2 CLK D VGND VNB VPB VPWR Q
.ends

* Black-box entry subcircuit for sky130_fd_sc_hd__o2111ai_2 abstract view
.subckt sky130_fd_sc_hd__o2111ai_2 A1 A2 B1 C1 D1 VGND VNB VPB VPWR Y
.ends

* Black-box entry subcircuit for sky130_fd_sc_hd__bufinv_16 abstract view
.subckt sky130_fd_sc_hd__bufinv_16 A VGND VNB VPB VPWR Y
.ends

* Black-box entry subcircuit for sky130_fd_sc_hd__inv_2 abstract view
.subckt sky130_fd_sc_hd__inv_2 A VGND VNB VPB VPWR Y
.ends

* Black-box entry subcircuit for sky130_fd_sc_hd__o2bb2ai_4 abstract view
.subckt sky130_fd_sc_hd__o2bb2ai_4 A1_N A2_N B1 B2 VGND VNB VPB VPWR Y
.ends

* Black-box entry subcircuit for sky130_fd_sc_hd__o311a_4 abstract view
.subckt sky130_fd_sc_hd__o311a_4 A1 A2 A3 B1 C1 VGND VNB VPB VPWR X
.ends

* Black-box entry subcircuit for sky130_fd_sc_hd__clkinv_2 abstract view
.subckt sky130_fd_sc_hd__clkinv_2 A VGND VNB VPB VPWR Y
.ends

* Black-box entry subcircuit for sky130_fd_sc_hd__and4b_1 abstract view
.subckt sky130_fd_sc_hd__and4b_1 A_N B C D VGND VNB VPB VPWR X
.ends

* Black-box entry subcircuit for sky130_fd_sc_hd__o31a_1 abstract view
.subckt sky130_fd_sc_hd__o31a_1 A1 A2 A3 B1 VGND VNB VPB VPWR X
.ends

* Black-box entry subcircuit for sky130_fd_sc_hd__or4b_1 abstract view
.subckt sky130_fd_sc_hd__or4b_1 A B C D_N VGND VNB VPB VPWR X
.ends

* Black-box entry subcircuit for sky130_fd_sc_hd__nand3b_1 abstract view
.subckt sky130_fd_sc_hd__nand3b_1 A_N B C VGND VNB VPB VPWR Y
.ends

* Black-box entry subcircuit for sky130_fd_sc_hd__and4_2 abstract view
.subckt sky130_fd_sc_hd__and4_2 A B C D VGND VNB VPB VPWR X
.ends

* Black-box entry subcircuit for sky130_fd_sc_hd__nor3_2 abstract view
.subckt sky130_fd_sc_hd__nor3_2 A B C VGND VNB VPB VPWR Y
.ends

* Black-box entry subcircuit for sky130_fd_sc_hd__xor2_1 abstract view
.subckt sky130_fd_sc_hd__xor2_1 A B VGND VNB VPB VPWR X
.ends

* Black-box entry subcircuit for sky130_fd_sc_hd__a2bb2o_1 abstract view
.subckt sky130_fd_sc_hd__a2bb2o_1 A1_N A2_N B1 B2 VGND VNB VPB VPWR X
.ends

* Black-box entry subcircuit for sky130_fd_sc_hd__a31oi_2 abstract view
.subckt sky130_fd_sc_hd__a31oi_2 A1 A2 A3 B1 VGND VNB VPB VPWR Y
.ends

* Black-box entry subcircuit for sky130_fd_sc_hd__inv_4 abstract view
.subckt sky130_fd_sc_hd__inv_4 A VGND VNB VPB VPWR Y
.ends

* Black-box entry subcircuit for sky130_fd_sc_hd__a311oi_1 abstract view
.subckt sky130_fd_sc_hd__a311oi_1 A1 A2 A3 B1 C1 VGND VNB VPB VPWR Y
.ends

* Black-box entry subcircuit for sky130_fd_sc_hd__a31oi_1 abstract view
.subckt sky130_fd_sc_hd__a31oi_1 A1 A2 A3 B1 VGND VNB VPB VPWR Y
.ends

* Black-box entry subcircuit for sky130_fd_sc_hd__a311o_1 abstract view
.subckt sky130_fd_sc_hd__a311o_1 A1 A2 A3 B1 C1 VGND VNB VPB VPWR X
.ends

* Black-box entry subcircuit for sky130_fd_sc_hd__a41oi_2 abstract view
.subckt sky130_fd_sc_hd__a41oi_2 A1 A2 A3 A4 B1 VGND VNB VPB VPWR Y
.ends

* Black-box entry subcircuit for sky130_fd_sc_hd__or4_4 abstract view
.subckt sky130_fd_sc_hd__or4_4 A B C D VGND VNB VPB VPWR X
.ends

* Black-box entry subcircuit for sky130_fd_sc_hd__a32oi_4 abstract view
.subckt sky130_fd_sc_hd__a32oi_4 A1 A2 A3 B1 B2 VGND VNB VPB VPWR Y
.ends

* Black-box entry subcircuit for sky130_fd_sc_hd__a21boi_4 abstract view
.subckt sky130_fd_sc_hd__a21boi_4 A1 A2 B1_N VGND VNB VPB VPWR Y
.ends

* Black-box entry subcircuit for sky130_fd_sc_hd__o32ai_2 abstract view
.subckt sky130_fd_sc_hd__o32ai_2 A1 A2 A3 B1 B2 VGND VNB VPB VPWR Y
.ends

* Black-box entry subcircuit for sky130_fd_sc_hd__o21a_4 abstract view
.subckt sky130_fd_sc_hd__o21a_4 A1 A2 B1 VGND VNB VPB VPWR X
.ends

* Black-box entry subcircuit for sky130_fd_sc_hd__o41ai_4 abstract view
.subckt sky130_fd_sc_hd__o41ai_4 A1 A2 A3 A4 B1 VGND VNB VPB VPWR Y
.ends

* Black-box entry subcircuit for sky130_fd_sc_hd__or3_1 abstract view
.subckt sky130_fd_sc_hd__or3_1 A B C VGND VNB VPB VPWR X
.ends

* Black-box entry subcircuit for sky130_fd_sc_hd__o21bai_1 abstract view
.subckt sky130_fd_sc_hd__o21bai_1 A1 A2 B1_N VGND VNB VPB VPWR Y
.ends

* Black-box entry subcircuit for sky130_fd_sc_hd__a32o_1 abstract view
.subckt sky130_fd_sc_hd__a32o_1 A1 A2 A3 B1 B2 VGND VNB VPB VPWR X
.ends

* Black-box entry subcircuit for sky130_fd_sc_hd__o221a_4 abstract view
.subckt sky130_fd_sc_hd__o221a_4 A1 A2 B1 B2 C1 VGND VNB VPB VPWR X
.ends

* Black-box entry subcircuit for sky130_fd_sc_hd__buf_1 abstract view
.subckt sky130_fd_sc_hd__buf_1 A VGND VNB VPB VPWR X
.ends

* Black-box entry subcircuit for sky130_fd_sc_hd__a2bb2oi_1 abstract view
.subckt sky130_fd_sc_hd__a2bb2oi_1 A1_N A2_N B1 B2 VGND VNB VPB VPWR Y
.ends

* Black-box entry subcircuit for sky130_fd_sc_hd__o31ai_4 abstract view
.subckt sky130_fd_sc_hd__o31ai_4 A1 A2 A3 B1 VGND VNB VPB VPWR Y
.ends

* Black-box entry subcircuit for sky130_fd_sc_hd__and3_4 abstract view
.subckt sky130_fd_sc_hd__and3_4 A B C VGND VNB VPB VPWR X
.ends

* Black-box entry subcircuit for sky130_fd_sc_hd__nand3b_4 abstract view
.subckt sky130_fd_sc_hd__nand3b_4 A_N B C VGND VNB VPB VPWR Y
.ends

* Black-box entry subcircuit for sky130_fd_sc_hd__a2bb2o_4 abstract view
.subckt sky130_fd_sc_hd__a2bb2o_4 A1_N A2_N B1 B2 VGND VNB VPB VPWR X
.ends

* Black-box entry subcircuit for sky130_fd_sc_hd__dlymetal6s4s_1 abstract view
.subckt sky130_fd_sc_hd__dlymetal6s4s_1 A VGND VNB VPB VPWR X
.ends

* Black-box entry subcircuit for sky130_fd_sc_hd__a2bb2o_2 abstract view
.subckt sky130_fd_sc_hd__a2bb2o_2 A1_N A2_N B1 B2 VGND VNB VPB VPWR X
.ends

* Black-box entry subcircuit for sky130_fd_sc_hd__o2bb2a_1 abstract view
.subckt sky130_fd_sc_hd__o2bb2a_1 A1_N A2_N B1 B2 VGND VNB VPB VPWR X
.ends

* Black-box entry subcircuit for sky130_fd_sc_hd__or3_2 abstract view
.subckt sky130_fd_sc_hd__or3_2 A B C VGND VNB VPB VPWR X
.ends

* Black-box entry subcircuit for sky130_fd_sc_hd__a221o_1 abstract view
.subckt sky130_fd_sc_hd__a221o_1 A1 A2 B1 B2 C1 VGND VNB VPB VPWR X
.ends

* Black-box entry subcircuit for sky130_fd_sc_hd__a41oi_1 abstract view
.subckt sky130_fd_sc_hd__a41oi_1 A1 A2 A3 A4 B1 VGND VNB VPB VPWR Y
.ends

* Black-box entry subcircuit for sky130_fd_sc_hd__and4_4 abstract view
.subckt sky130_fd_sc_hd__and4_4 A B C D VGND VNB VPB VPWR X
.ends

* Black-box entry subcircuit for sky130_fd_sc_hd__nand4b_2 abstract view
.subckt sky130_fd_sc_hd__nand4b_2 A_N B C D VGND VNB VPB VPWR Y
.ends

* Black-box entry subcircuit for sky130_fd_sc_hd__xnor2_1 abstract view
.subckt sky130_fd_sc_hd__xnor2_1 A B VGND VNB VPB VPWR Y
.ends

* Black-box entry subcircuit for sky130_fd_sc_hd__nor3b_1 abstract view
.subckt sky130_fd_sc_hd__nor3b_1 A B C_N VGND VNB VPB VPWR Y
.ends

* Black-box entry subcircuit for sky130_fd_sc_hd__nand3b_2 abstract view
.subckt sky130_fd_sc_hd__nand3b_2 A_N B C VGND VNB VPB VPWR Y
.ends

* Black-box entry subcircuit for sky130_fd_sc_hd__nor4_2 abstract view
.subckt sky130_fd_sc_hd__nor4_2 A B C D VGND VNB VPB VPWR Y
.ends

* Black-box entry subcircuit for sky130_fd_sc_hd__o311a_1 abstract view
.subckt sky130_fd_sc_hd__o311a_1 A1 A2 A3 B1 C1 VGND VNB VPB VPWR X
.ends

* Black-box entry subcircuit for sky130_fd_sc_hd__o41ai_1 abstract view
.subckt sky130_fd_sc_hd__o41ai_1 A1 A2 A3 A4 B1 VGND VNB VPB VPWR Y
.ends

* Black-box entry subcircuit for sky130_fd_sc_hd__o221a_1 abstract view
.subckt sky130_fd_sc_hd__o221a_1 A1 A2 B1 B2 C1 VGND VNB VPB VPWR X
.ends

* Black-box entry subcircuit for sky130_fd_sc_hd__a221oi_4 abstract view
.subckt sky130_fd_sc_hd__a221oi_4 A1 A2 B1 B2 C1 VGND VNB VPB VPWR Y
.ends

* Black-box entry subcircuit for sky130_fd_sc_hd__and2b_1 abstract view
.subckt sky130_fd_sc_hd__and2b_1 A_N B VGND VNB VPB VPWR X
.ends

.subckt PE VGND VPWR a_in[0] a_in[1] a_in[2] a_in[3] a_in[4] a_in[5] a_in[6] a_in[7]
+ a_out[0] a_out[1] a_out[2] a_out[3] a_out[4] a_out[5] a_out[6] a_out[7] b_in[0]
+ b_in[1] b_in[2] b_in[3] b_in[4] b_in[5] b_in[6] b_in[7] b_out[0] b_out[1] b_out[2]
+ b_out[3] b_out[4] b_out[5] b_out[6] b_out[7] clear_acc clk psum[0] psum[10] psum[11]
+ psum[12] psum[13] psum[14] psum[15] psum[16] psum[17] psum[18] psum[19] psum[1]
+ psum[20] psum[21] psum[22] psum[23] psum[24] psum[25] psum[26] psum[27] psum[28]
+ psum[29] psum[2] psum[30] psum[31] psum[3] psum[4] psum[5] psum[6] psum[7] psum[8]
+ psum[9] reset v_a_in v_a_out v_b_in v_b_out
XFILLER_39_222 VGND VGND VPWR VPWR sky130_fd_sc_hd__fill_2
XTAP_TAPCELL_ROW_52_404 VGND VPWR sky130_fd_sc_hd__tapvpwrvgnd_1
XFILLER_52_29 VPWR VGND VPWR VGND sky130_ef_sc_hd__decap_12
XFILLER_45_225 VGND VGND VPWR VPWR sky130_fd_sc_hd__decap_4
XFILLER_26_85 VPWR VGND VPWR VGND sky130_ef_sc_hd__decap_12
XFILLER_13_166 VGND VGND VPWR VPWR sky130_fd_sc_hd__fill_2
Xrebuffer7 _0427_ VGND VGND VPWR VPWR net139 sky130_fd_sc_hd__clkbuf_1
XFILLER_36_214 VPWR VGND VPWR VGND sky130_ef_sc_hd__decap_12
X_1270_ _0591_ _0593_ _0595_ VGND VGND VPWR VPWR _0597_ sky130_fd_sc_hd__o21ai_1
X_0985_ _0315_ _0316_ _0245_ net336 VGND VGND VPWR VPWR _0317_ sky130_fd_sc_hd__o2bb2ai_2
Xfanout127 net11 VGND VGND VPWR VPWR net127 sky130_fd_sc_hd__buf_4
X_1399_ clknet_3_6__leaf_clk _0025_ VGND VGND VPWR VPWR net53 sky130_fd_sc_hd__dfxtp_1
Xfanout105 net4 VGND VGND VPWR VPWR net105 sky130_fd_sc_hd__clkbuf_4
Xfanout116 net118 VGND VGND VPWR VPWR net116 sky130_fd_sc_hd__clkbuf_4
XPHY_EDGE_ROW_19_Left_72 VGND VGND VPWR VPWR sky130_fd_sc_hd__decap_3
XFILLER_27_225 VGND VGND VPWR VPWR sky130_fd_sc_hd__decap_8
XFILLER_6_129 VGND VGND VPWR VPWR sky130_fd_sc_hd__decap_4
Xhold192 _0633_ VGND VGND VPWR VPWR net324 sky130_fd_sc_hd__dlygate4sd3_1
XTAP_TAPCELL_ROW_5_140 VGND VPWR sky130_fd_sc_hd__tapvpwrvgnd_1
XFILLER_41_261 VPWR VGND VPWR VGND sky130_ef_sc_hd__decap_12
XTAP_TAPCELL_ROW_11_175 VGND VPWR sky130_fd_sc_hd__tapvpwrvgnd_1
X_0770_ _0138_ _0139_ VGND VGND VPWR VPWR _0140_ sky130_fd_sc_hd__nand2_1
X_1253_ _0576_ _0578_ _0579_ VGND VGND VPWR VPWR _0580_ sky130_fd_sc_hd__and3_1
X_1322_ _0620_ _0618_ _0616_ _0645_ VGND VGND VPWR VPWR _0647_ sky130_fd_sc_hd__a211oi_2
X_1184_ _0321_ _0377_ _0447_ VGND VGND VPWR VPWR _0513_ sky130_fd_sc_hd__o21ai_1
XTAP_TAPCELL_ROW_19_220 VGND VPWR sky130_fd_sc_hd__tapvpwrvgnd_1
X_0968_ net128 net102 net100 net88 VGND VGND VPWR VPWR _0300_ sky130_fd_sc_hd__a22oi_4
X_0899_ net330 net333 net131 net312 VGND VGND VPWR VPWR _0235_ sky130_fd_sc_hd__a22o_1
XPHY_EDGE_ROW_4_Left_57 VGND VGND VPWR VPWR sky130_fd_sc_hd__decap_3
XFILLER_38_309 VGND VGND VPWR VPWR sky130_fd_sc_hd__fill_2
XFILLER_0_57 VGND VGND VPWR VPWR sky130_fd_sc_hd__fill_2
XTAP_TAPCELL_ROW_16_201 VGND VPWR sky130_fd_sc_hd__tapvpwrvgnd_1
X_0822_ _0184_ _0185_ _0070_ VGND VGND VPWR VPWR _0186_ sky130_fd_sc_hd__a21o_1
XFILLER_9_66 VPWR VGND VPWR VGND sky130_ef_sc_hd__decap_12
XFILLER_50_3 VPWR VGND VPWR VGND sky130_ef_sc_hd__decap_12
X_0753_ _0123_ _0124_ VGND VGND VPWR VPWR _0125_ sky130_fd_sc_hd__and2_1
XTAP_TAPCELL_ROW_39_326 VGND VPWR sky130_fd_sc_hd__tapvpwrvgnd_1
X_1305_ _0629_ _0627_ _0630_ VGND VGND VPWR VPWR _0054_ sky130_fd_sc_hd__a21oi_1
X_1236_ _0558_ _0560_ net213 VGND VGND VPWR VPWR _0564_ sky130_fd_sc_hd__o21ai_1
XFILLER_29_309 VGND VGND VPWR VPWR sky130_fd_sc_hd__fill_2
XTAP_TAPCELL_ROW_47_370 VGND VPWR sky130_fd_sc_hd__tapvpwrvgnd_1
XPHY_EDGE_ROW_46_Left_99 VGND VGND VPWR VPWR sky130_fd_sc_hd__decap_3
X_1098_ net212 _0424_ _0422_ _0426_ VGND VGND VPWR VPWR _0428_ sky130_fd_sc_hd__o211ai_2
X_1167_ _0488_ _0489_ net176 _0479_ VGND VGND VPWR VPWR _0496_ sky130_fd_sc_hd__o211ai_4
XTAP_TAPCELL_ROW_30_281 VGND VPWR sky130_fd_sc_hd__tapvpwrvgnd_1
XFILLER_20_253 VPWR VGND VPWR VGND sky130_ef_sc_hd__decap_12
XTAP_TAPCELL_ROW_22_237 VGND VPWR sky130_fd_sc_hd__tapvpwrvgnd_1
XFILLER_18_97 VGND VGND VPWR VPWR sky130_fd_sc_hd__decap_8
XFILLER_34_41 VPWR VGND VPWR VGND sky130_ef_sc_hd__decap_12
XFILLER_7_213 VGND VGND VPWR VPWR sky130_fd_sc_hd__fill_1
XFILLER_11_242 VGND VGND VPWR VPWR sky130_fd_sc_hd__decap_4
XFILLER_7_268 VGND VGND VPWR VPWR sky130_fd_sc_hd__fill_1
XFILLER_38_139 VGND VGND VPWR VPWR sky130_fd_sc_hd__fill_1
X_1021_ _0344_ _0348_ _0337_ net144 VGND VGND VPWR VPWR _0352_ sky130_fd_sc_hd__o211ai_4
X_0805_ _0157_ _0159_ _0163_ _0164_ VGND VGND VPWR VPWR _0171_ sky130_fd_sc_hd__a22o_1
X_0736_ _0106_ net164 _0104_ VGND VGND VPWR VPWR _0110_ sky130_fd_sc_hd__a21oi_4
XFILLER_44_109 VPWR VGND VPWR VGND sky130_ef_sc_hd__decap_12
X_1219_ _0537_ _0538_ _0546_ VGND VGND VPWR VPWR _0547_ sky130_fd_sc_hd__o21bai_2
XFILLER_29_139 VGND VGND VPWR VPWR sky130_fd_sc_hd__fill_2
XFILLER_52_153 VPWR VGND VPWR VGND sky130_ef_sc_hd__decap_12
XTAP_TAPCELL_ROW_50_387 VGND VPWR sky130_fd_sc_hd__tapvpwrvgnd_1
XFILLER_45_73 VGND VGND VPWR VPWR sky130_fd_sc_hd__decap_8
XPHY_EDGE_ROW_7_Left_60 VGND VGND VPWR VPWR sky130_fd_sc_hd__decap_3
Xrebuffer17 _0182_ VGND VGND VPWR VPWR net149 sky130_fd_sc_hd__buf_6
Xrebuffer28 net161 VGND VGND VPWR VPWR net160 sky130_fd_sc_hd__dlygate4sd1_1
Xrebuffer39 _0103_ VGND VGND VPWR VPWR net171 sky130_fd_sc_hd__dlymetal6s2s_1
XFILLER_13_3 VPWR VGND VPWR VGND sky130_ef_sc_hd__decap_12
XFILLER_34_197 VGND VGND VPWR VPWR sky130_fd_sc_hd__decap_6
XFILLER_34_153 VPWR VGND VPWR VGND sky130_ef_sc_hd__decap_12
X_1004_ net89 net129 net224 net100 _0326_ VGND VGND VPWR VPWR _0335_ sky130_fd_sc_hd__a41o_1
Xrebuffer107 _0653_ VGND VGND VPWR VPWR net239 sky130_fd_sc_hd__buf_2
X_0719_ product_reg\[2\] net59 VGND VGND VPWR VPWR _0095_ sky130_fd_sc_hd__nand2_1
XFILLER_9_308 VGND VGND VPWR VPWR sky130_fd_sc_hd__decap_3
Xoutput42 net42 VGND VGND VPWR VPWR psum[14] sky130_fd_sc_hd__buf_2
Xoutput53 net53 VGND VGND VPWR VPWR psum[24] sky130_fd_sc_hd__buf_2
XPHY_EDGE_ROW_33_Left_86 VGND VGND VPWR VPWR sky130_fd_sc_hd__decap_3
Xoutput31 net31 VGND VGND VPWR VPWR b_out[2] sky130_fd_sc_hd__buf_2
Xoutput64 net64 VGND VGND VPWR VPWR psum[5] sky130_fd_sc_hd__buf_2
XFILLER_16_164 VGND VGND VPWR VPWR sky130_fd_sc_hd__decap_6
XFILLER_16_186 VGND VGND VPWR VPWR sky130_fd_sc_hd__decap_3
XFILLER_16_197 VGND VGND VPWR VPWR sky130_fd_sc_hd__fill_2
XTAP_TAPCELL_ROW_52_405 VGND VPWR sky130_fd_sc_hd__tapvpwrvgnd_1
XFILLER_22_189 VGND VGND VPWR VPWR sky130_fd_sc_hd__fill_1
XFILLER_45_215 VGND VGND VPWR VPWR sky130_fd_sc_hd__decap_8
Xclkbuf_3_6__f_clk clknet_0_clk VGND VGND VPWR VPWR clknet_3_6__leaf_clk sky130_fd_sc_hd__clkbuf_16
XFILLER_13_123 VGND VGND VPWR VPWR sky130_fd_sc_hd__decap_8
XFILLER_26_97 VPWR VGND VPWR VGND sky130_ef_sc_hd__decap_12
Xrebuffer8 _0427_ VGND VGND VPWR VPWR net140 sky130_fd_sc_hd__clkbuf_2
XFILLER_3_57 VPWR VGND VPWR VGND sky130_ef_sc_hd__decap_12
XTAP_TAPCELL_ROW_8_160 VGND VPWR sky130_fd_sc_hd__tapvpwrvgnd_1
XFILLER_36_248 VGND VGND VPWR VPWR sky130_fd_sc_hd__decap_4
XFILLER_36_226 VGND VGND VPWR VPWR sky130_fd_sc_hd__decap_4
X_0984_ _0288_ _0310_ _0311_ VGND VGND VPWR VPWR _0316_ sky130_fd_sc_hd__nand3_2
Xfanout117 net118 VGND VGND VPWR VPWR net117 sky130_fd_sc_hd__buf_6
X_1398_ clknet_3_6__leaf_clk _0024_ VGND VGND VPWR VPWR net52 sky130_fd_sc_hd__dfxtp_1
Xfanout106 net108 VGND VGND VPWR VPWR net106 sky130_fd_sc_hd__clkbuf_4
Xfanout128 net129 VGND VGND VPWR VPWR net128 sky130_fd_sc_hd__buf_12
XFILLER_50_251 VGND VGND VPWR VPWR sky130_fd_sc_hd__fill_1
XFILLER_35_281 VGND VGND VPWR VPWR sky130_fd_sc_hd__fill_1
XFILLER_6_108 VGND VGND VPWR VPWR sky130_fd_sc_hd__fill_1
XFILLER_12_88 VPWR VGND VPWR VGND sky130_ef_sc_hd__decap_12
Xhold193 _0685_ VGND VGND VPWR VPWR net325 sky130_fd_sc_hd__dlygate4sd3_1
Xhold182 reset VGND VGND VPWR VPWR net314 sky130_fd_sc_hd__dlygate4sd3_1
XFILLER_33_207 VPWR VGND VPWR VGND sky130_ef_sc_hd__decap_12
XTAP_TAPCELL_ROW_5_141 VGND VPWR sky130_fd_sc_hd__tapvpwrvgnd_1
XTAP_TAPCELL_ROW_28_265 VGND VPWR sky130_fd_sc_hd__tapvpwrvgnd_1
XFILLER_41_273 VGND VGND VPWR VPWR sky130_fd_sc_hd__fill_2
XFILLER_26_270 VPWR VGND VPWR VGND sky130_ef_sc_hd__decap_12
XFILLER_45_6 VPWR VGND VPWR VGND sky130_ef_sc_hd__decap_12
XTAP_TAPCELL_ROW_11_176 VGND VPWR sky130_fd_sc_hd__tapvpwrvgnd_1
X_1252_ net124 net121 net234 net92 VGND VGND VPWR VPWR _0579_ sky130_fd_sc_hd__nand4_4
X_1321_ _0618_ _0620_ _0616_ VGND VGND VPWR VPWR _0646_ sky130_fd_sc_hd__a21oi_1
XFILLER_17_281 VGND VGND VPWR VPWR sky130_fd_sc_hd__decap_3
XPHY_EDGE_ROW_20_Left_73 VGND VGND VPWR VPWR sky130_fd_sc_hd__decap_3
X_1183_ net260 _0510_ _0509_ VGND VGND VPWR VPWR _0512_ sky130_fd_sc_hd__o21ai_2
X_0967_ net103 net126 VGND VGND VPWR VPWR _0299_ sky130_fd_sc_hd__nand2_1
X_0898_ net330 net312 net109 net131 VGND VGND VPWR VPWR _0234_ sky130_fd_sc_hd__nand4_1
XPHY_EDGE_ROW_12_Right_12 VGND VGND VPWR VPWR sky130_fd_sc_hd__decap_3
XTAP_TAPCELL_ROW_2_122 VGND VPWR sky130_fd_sc_hd__tapvpwrvgnd_1
XPHY_EDGE_ROW_21_Right_21 VGND VGND VPWR VPWR sky130_fd_sc_hd__decap_3
XPHY_EDGE_ROW_30_Right_30 VGND VGND VPWR VPWR sky130_fd_sc_hd__decap_3
XFILLER_23_65 VGND VGND VPWR VPWR sky130_fd_sc_hd__fill_2
XTAP_TAPCELL_ROW_16_202 VGND VPWR sky130_fd_sc_hd__tapvpwrvgnd_1
X_0821_ net148 _0183_ _0179_ _0180_ VGND VGND VPWR VPWR _0185_ sky130_fd_sc_hd__o211ai_2
XFILLER_9_78 VPWR VGND VPWR VGND sky130_ef_sc_hd__decap_12
X_0752_ product_reg\[6\] net65 VGND VGND VPWR VPWR _0124_ sky130_fd_sc_hd__or2_1
XTAP_TAPCELL_ROW_39_327 VGND VPWR sky130_fd_sc_hd__tapvpwrvgnd_1
X_1304_ product_reg\[11\] net78 net84 VGND VGND VPWR VPWR _0630_ sky130_fd_sc_hd__o21ai_1
X_1235_ _0512_ _0515_ net233 VGND VGND VPWR VPWR _0563_ sky130_fd_sc_hd__o21a_1
X_1166_ _0477_ _0479_ _0486_ _0487_ VGND VGND VPWR VPWR _0495_ sky130_fd_sc_hd__o2bb2ai_2
XTAP_TAPCELL_ROW_47_371 VGND VPWR sky130_fd_sc_hd__tapvpwrvgnd_1
XFILLER_20_221 VPWR VGND VPWR VGND sky130_ef_sc_hd__decap_12
X_1097_ net143 _0354_ _0421_ _0420_ VGND VGND VPWR VPWR _0427_ sky130_fd_sc_hd__a22oi_4
XFILLER_20_265 VPWR VGND VPWR VGND sky130_ef_sc_hd__decap_12
XFILLER_20_287 VGND VGND VPWR VPWR sky130_fd_sc_hd__decap_3
XFILLER_47_107 VGND VGND VPWR VPWR sky130_fd_sc_hd__decap_4
XFILLER_47_129 VGND VGND VPWR VPWR sky130_fd_sc_hd__decap_3
XFILLER_34_53 VGND VGND VPWR VPWR sky130_fd_sc_hd__fill_2
XFILLER_7_225 VPWR VGND VPWR VGND sky130_ef_sc_hd__decap_12
XFILLER_11_276 VGND VGND VPWR VPWR sky130_fd_sc_hd__decap_4
X_1020_ net144 _0337_ _0349_ VGND VGND VPWR VPWR _0351_ sky130_fd_sc_hd__a21o_4
X_0804_ product_reg\[11\] net39 _0164_ _0163_ _0159_ VGND VGND VPWR VPWR _0170_ sky130_fd_sc_hd__o2111ai_4
X_0735_ net75 net375 net82 _0109_ VGND VGND VPWR VPWR _0004_ sky130_fd_sc_hd__o211a_1
X_1218_ _0544_ _0545_ VGND VGND VPWR VPWR _0546_ sky130_fd_sc_hd__nand2_1
X_1149_ net208 _0424_ _0475_ VGND VGND VPWR VPWR _0478_ sky130_fd_sc_hd__a21oi_2
XFILLER_52_165 VGND VGND VPWR VPWR sky130_fd_sc_hd__decap_3
XTAP_TAPCELL_ROW_50_388 VGND VPWR sky130_fd_sc_hd__tapvpwrvgnd_1
XPHY_EDGE_ROW_51_Left_104 VGND VGND VPWR VPWR sky130_fd_sc_hd__decap_3
XFILLER_3_272 VGND VGND VPWR VPWR sky130_fd_sc_hd__decap_4
Xrebuffer18 net149 VGND VGND VPWR VPWR net150 sky130_fd_sc_hd__buf_6
Xrebuffer29 net162 VGND VGND VPWR VPWR net161 sky130_fd_sc_hd__dlygate4sd1_1
X_1003_ net126 net102 _0328_ _0331_ VGND VGND VPWR VPWR _0334_ sky130_fd_sc_hd__a22o_1
XFILLER_34_165 VGND VGND VPWR VPWR sky130_fd_sc_hd__decap_8
X_0718_ net75 net277 net82 _0094_ VGND VGND VPWR VPWR _0002_ sky130_fd_sc_hd__o211a_1
XPHY_EDGE_ROW_6_Right_6 VGND VGND VPWR VPWR sky130_fd_sc_hd__decap_3
XFILLER_15_11 VGND VGND VPWR VPWR sky130_fd_sc_hd__fill_1